geometry optimzed in LAMMPS
_audit_creation_date              2020-11-30 
_audit_creation_method            'lammps2cif' 
_symmetry_space_group_name_H-M    'P1' 
_symmetry_Int_Tables_number       1 
_symmetry_cell_setting            triclinic 
loop_ 
_symmetry_equiv_pos_as_xyz 
  x,y,z 
_cell_length_a                    26.302453512224037 
_cell_length_b                    25.14411402130724 
_cell_length_c                    24.22253931246572 
_cell_angle_alpha                 90.56969900185378 
_cell_angle_beta                  90.90130752164909 
_cell_angle_gamma                 89.32487425883238 
loop_ 
_atom_site_label 
_atom_site_type_symbol 
_atom_site_fract_x 
_atom_site_fract_y 
_atom_site_fract_z 
_atom_site_charge 
C1          C  0.25226780  0.24968576  0.75246095    -0.00110
O2          O  0.12212639  0.10735950  0.49605336    -0.72910
O3          O  0.19249593  0.16006857  0.49688604    -0.51820
C4          C  0.14426329  0.15307409  0.49702892     0.80810
O5          O  0.25248836  0.41223563  0.65307243    -0.57520
O6          O  0.24303760  0.34875081  0.58569911    -0.50540
C7          C  0.24807428  0.36429419  0.63634004     0.72830
O8          O  0.24655585  0.08619412  0.65213287    -0.72070
O9          O  0.26186136  0.14794103  0.58594437    -0.52640
C10         C  0.25326429  0.13359098  0.63586503     0.78830
O11         O  0.10633989  0.41779534  0.47895772    -0.57220
O12         O  0.16604394  0.35124278  0.48585451    -0.50340
C13         C  0.12024795  0.36818524  0.47839398     0.75420
Zr14       Zr  0.14769680  0.50559928  0.49177344     2.54710
O15         O  0.08534286  0.50732630  0.56501309    -0.77780
O16         O  0.08271513  0.51555846  0.41975246    -0.91200
Zr17       Zr  0.25048749  0.49795312  0.61183010     2.64680
O18         O  0.17808916  0.00099946  0.67675086    -0.96160
O19         O  0.31450983  0.50025569  0.68546744    -0.78220
O20         O  0.20253290  0.05710156  0.55216052    -0.81570
O21         O  0.19368072  0.44990094  0.55355959    -2.16280
O22         O  0.25636067  0.40883550  0.34222473    -0.64960
O23         O  0.25080309  0.34653618  0.40984797    -0.49530
C24         C  0.25400739  0.36110953  0.35914359     0.73810
O25         O  0.40549213  0.06846786  0.50967725    -0.57870
O26         O  0.34974032  0.13819533  0.49963066    -0.49850
C27         C  0.39507975  0.11843680  0.50556713     0.75610
O28         O  0.38838618  0.39238960  0.50923976    -0.69270
O29         O  0.31925328  0.33805088  0.50801755    -0.47940
C30         C  0.36708883  0.34652865  0.51049595     0.76990
O31         O  0.26129587  0.08177066  0.34205759    -0.64600
O32         O  0.26747804  0.14582506  0.40939112    -0.51790
C33         C  0.26506892  0.12985912  0.35868228     0.75370
Zr34       Zr  0.25971923  0.49520159  0.38373012     2.77540
O35         O  0.32420354  0.99230896  0.31835295    -0.95350
O36         O  0.18878583  0.00023032  0.31264215    -0.76150
Zr37       Zr  0.36233089  0.48577400  0.50443123     2.70070
O38         O  0.42404071  0.47877911  0.43075807    -0.77410
O39         O  0.42750408  0.47939441  0.57668305    -0.96500
Zr40       Zr  0.26431234  0.10015040  0.49774858     2.21500
Zr41       Zr  0.24662827  0.39497102  0.49769477     2.11130
O42         O  0.30755470  0.43897150  0.44310625    -2.45180
O43         O  0.31389694  0.04230662  0.44173377    -0.77210
O44         O  0.19896812  0.44948910  0.43595535    -0.69400
O45         O  0.30988871  0.04371530  0.55979883    -2.30360
O46         O  0.20529930  0.05570041  0.43762494    -2.26570
O47         O  0.30276778  0.44082812  0.55893781    -0.71160
H48         H  0.17071980  0.42883828  0.57482012     0.80840
H49         H  0.33189635  0.06396264  0.58417972     0.81920
H50         H  0.32748219  0.41391660  0.42178323     0.84150
H51         H  0.18749171  0.08063281  0.41397084     0.81750
H52         H  0.34436217  0.99074469  0.66639871     0.44790
H53         H  0.41628367  0.45027449  0.60068681     0.43760
H54         H  0.41338955  0.00774349  0.40629520     0.43440
H55         H  0.34969315  0.45985696  0.32928657     0.41370
H56         H  0.16276577  0.48928252  0.33003849     0.44500
H57         H  0.09312250  0.05531649  0.39824316     0.39290
H58         H  0.09893826  0.03720119  0.59532008     0.45400
H59         H  0.16193883  0.46594622  0.66950738     0.41820
H60         H  0.31376710  0.48326016  0.28312834     0.46740
H61         H  0.05254474  0.52977388  0.43918290     0.45460
H62         H  0.19682613  0.49477228  0.71310551     0.45600
H63         H  0.45780979  0.46477861  0.55780383     0.45960
C64         C  0.47375246  0.24571389  0.48867133     0.02940
C65         C  0.02941563  0.25109411  0.49501620     0.02940
C66         C  0.25795361  0.24450110  0.24272428    -0.00110
C67         C  0.22877371  0.49491729  0.99580950     0.02940
C68         C  0.28091101  0.49708428  0.99907095     0.02940
O69         O  0.09051889  0.25405304  0.84486920    -0.72910
O70         O  0.15001821  0.25818249  0.91472629    -0.51820
C71         C  0.13648317  0.25635692  0.86344913     0.80810
O72         O  0.40410567  0.38654565  0.99976280    -0.57520
O73         O  0.35148158  0.31551134  0.98845323    -0.50540
C74         C  0.35992526  0.36596147  0.99246795     0.72830
O75         O  0.07125258  0.40280063  0.00719629    -0.72070
O76         O  0.13983195  0.34626132  0.00419073    -0.52640
C77         C  0.11920687  0.39321338  0.00675190     0.78830
O78         O  0.42095136  0.24550721  0.84026960    -0.57220
O79         O  0.36137004  0.23467306  0.90700601    -0.50340
C80         C  0.37503028  0.24044209  0.85675740     0.75420
Zr81       Zr  0.00539440  0.24869074  0.88236119     2.54710
O82         O  0.00158250  0.32081404  0.81607982    -0.77780
O83         O  0.50894908  0.17781115  0.81248914    -0.91200
Zr84       Zr  0.99195894  0.35578748  0.00229895     2.64680
O85         O  0.98743365  0.42304488  0.93060531    -0.96160
O86         O  0.48431163  0.42004580  0.07705151    -0.78220
O87         O  0.04820340  0.30870416  0.94291869    -0.81570
O88         O  0.45031076  0.29792827  0.93938162    -2.16280
O89         O  0.43763193  0.08969344  0.98335663    -0.64960
O90         O  0.36958726  0.14652973  0.99065661    -0.49530
C91         C  0.38974370  0.09964198  0.98518536     0.73810
O92         O  0.08942918  0.24180005  0.15416914    -0.57870
O93         O  0.14873398  0.25612663  0.08795977    -0.49850
C94         C  0.13524534  0.24815986  0.13791475     0.75610
O95         O  0.41941600  0.24358567  0.15004029    -0.69270
O96         O  0.35998574  0.23654345  0.08040578    -0.47940
C97         C  0.37349047  0.24071302  0.13154164     0.76990
O98         O  0.10508855  0.10513359  0.99842574    -0.64600
O99         O  0.15789103  0.17632547  0.00779424    -0.51790
C100        C  0.14926252  0.12581633  0.00528319     0.75370
Zr101      Zr  0.01699248  0.13564947  0.99336821     2.77540
O102        O  0.02031158  0.06804888  0.06476369    -0.95350
O103        O  0.02889281  0.07137024  0.91874213    -0.76170
Zr104      Zr  0.00420184  0.24263957  0.11310078     2.70070
O105        O  0.00464784  0.17107598  0.18002722    -0.77410
O106        O  0.00417628  0.31282595  0.18307995    -0.96500
Zr107      Zr  0.10333382  0.25639268  0.00046209     2.21500
Zr108      Zr  0.40655360  0.23584946  0.99462717     2.11130
O109        O  0.46134911  0.18353205  0.05278678    -2.45180
O110        O  0.05975911  0.19387348  0.05509474    -0.77210
O111        O  0.46183150  0.18615966  0.93565244    -0.69400
O112        O  0.04779014  0.30547368  0.05987987    -2.30360
O113        O  0.06094015  0.19653620  0.93848351    -2.26570
O114        O  0.44872739  0.29537205  0.05671846    -0.71160
H115        H  0.42699297  0.31839354  0.91664082     0.80840
H116        H  0.06687274  0.32872643  0.08425271     0.81920
H117        H  0.44183106  0.15913097  0.07427891     0.84150
H118        H  0.08490150  0.17692676  0.91609025     0.81750
H119        H  0.00912074  0.41060201  0.10450157     0.44790
H120        H  0.47612018  0.33707353  0.17290690     0.43760
H121        H  0.02473935  0.14219014  0.16243436     0.43440
H122        H  0.48703865  0.06996522  0.08246608     0.41370
H123        H  0.50465815  0.08288221  0.88988353     0.44500
H124        H  0.04008770  0.15850274  0.82044599     0.39290
H125        H  0.01943151  0.35055494  0.83481118     0.45400
H126        H  0.45769252  0.41401593  0.90679656     0.41820
H127        H  0.02132787  0.03384510  0.04416111     0.46740
H128        H  0.51591160  0.19634267  0.77757925     0.45460
H129        H  0.97678728  0.45604406  0.95010178     0.45600
H130        H  0.99493445  0.29473592  0.21756758     0.45960
C131        C  0.30896652  0.05013129  0.99720104    -0.14050
C132        C  0.35768215  0.05183468  0.98163428    -0.29230
H133        H  0.29050477  0.08725085  0.00833849     0.14970
H134        H  0.37683505  0.01512959  0.96941885     0.15540
C135        C  0.15037169  0.44175757  0.00813025    -0.14050
C136        C  0.20107886  0.44312813  0.00276871    -0.29230
H137        H  0.12903689  0.47887065  0.01131831     0.14970
H138        H  0.22117800  0.40545487  0.00279502     0.15540
C139        C  0.31346455  0.44953310  0.01466216    -0.14050
C140        C  0.31667186  0.40389122  0.98484801    -0.29230
H141        H  0.34176440  0.45602836  0.04715388     0.14970
H142        H  0.29041472  0.39661896  0.95066183     0.15540
C143        C  0.19861697  0.04470728  0.98105636    -0.14050
C144        C  0.19219891  0.08779972  0.01411349    -0.29230
H145        H  0.17490862  0.04166076  0.94404806     0.14970
H146        H  0.21468576  0.09197987  0.05183496     0.15540
C147        C  0.30098912  0.24477541  0.20530898    -0.10900
C148        C  0.33420152  0.24292194  0.17167891    -0.12450
C149        C  0.21087733  0.24387981  0.21003038    -0.10900
C150        C  0.17490881  0.24563980  0.17879080    -0.12450
C151        C  0.25599540  0.32180831  0.31683717    -0.10900
C152        C  0.25797090  0.29029923  0.27948932    -0.12450
C153        C  0.26473781  0.16806014  0.31604806    -0.10900
C154        C  0.26168354  0.19906714  0.27889960    -0.12450
C155        C  0.39906810  0.29907177  0.51396882    -0.14050
C156        C  0.44583606  0.29712231  0.49311051    -0.29230
H157        H  0.38171029  0.26328845  0.52952341     0.14970
H158        H  0.46250053  0.33301620  0.47696803     0.15540
C159        C  0.11288779  0.20209883  0.49819757    -0.14050
C160        C  0.06187735  0.20158529  0.49611683    -0.29230
H161        H  0.13295786  0.23949899  0.50014271     0.14970
H162        H  0.04380819  0.16308132  0.49487693     0.15540
C163        C  0.08243841  0.32657849  0.46514438    -0.14050
C164        C  0.05387641  0.30429427  0.50401595    -0.29230
H165        H  0.08569743  0.30650942  0.42540651     0.14970
H166        H  0.05205863  0.32235014  0.54487324     0.15540
C167        C  0.43852666  0.15567486  0.50952748    -0.14050
C168        C  0.44092475  0.19832996  0.47672375    -0.29230
H169        H  0.46759835  0.14906474  0.54112606     0.14970
H170        H  0.41074096  0.20392272  0.44605242     0.15540
C171        C  0.29930329  0.24695666  0.78506924    -0.10900
C172        C  0.33534757  0.24318563  0.81598341    -0.12450
C173        C  0.17582196  0.25512705  0.82329195    -0.10900
C174        C  0.20913083  0.25230007  0.78978874    -0.12450
C175        C  0.25153067  0.29511166  0.71618217    -0.10900
C176        C  0.24948318  0.32594668  0.67882775    -0.12450
C177        C  0.24956075  0.20407252  0.71568968    -0.10900
C178        C  0.25088270  0.17274031  0.67819668    -0.12450
C179        C  0.25171712  0.74947731  0.75133971    -0.00110
O180        O  0.12184181  0.60005055  0.49324679    -0.72910
O181        O  0.19123551  0.65425479  0.49167730    -0.51820
C182        C  0.14323480  0.64605719  0.49180921     0.80810
O183        O  0.24987045  0.91330393  0.65280141    -0.57520
O184        O  0.23864251  0.84983532  0.58572452    -0.50540
C185        C  0.24498754  0.86531666  0.63622047     0.72830
O186        O  0.24826179  0.58507892  0.65183757    -0.72070
O187        O  0.26095916  0.64673710  0.58489850    -0.52640
C188        C  0.25349332  0.63258596  0.63510166     0.78830
O189        O  0.09896556  0.92744506  0.48173951    -0.57220
O190        O  0.15462577  0.85783721  0.49402438    -0.50340
C191        C  0.10946441  0.87732896  0.48601018     0.75420
Zr192      Zr  0.14485453  0.01202481  0.49244404     2.54710
O193        O  0.08236178  0.01616810  0.56547563    -0.77780
O194        O  0.08097930  0.02482022  0.41974128    -0.91200
Zr195      Zr  0.24792662  0.99941498  0.61179520     2.64680
O196        O  0.18036895  0.49952193  0.67640757    -0.96160
O197        O  0.31242325  0.00108863  0.68495665    -0.78220
O198        O  0.20364578  0.55356178  0.55146976    -0.81570
O199        O  0.18927071  0.95405201  0.55365928    -2.16280
O200        O  0.25170846  0.90978432  0.34263727    -0.64960
O201        O  0.24212112  0.84768691  0.40986491    -0.49530
C202        C  0.24757482  0.86208854  0.35934604     0.73810
O203        O  0.40693138  0.57014436  0.51235680    -0.57870
O204        O  0.34943110  0.63813616  0.50077190    -0.49850
C205        C  0.39512042  0.61969774  0.50791498     0.75610
O206        O  0.38314691  0.89179772  0.50690961    -0.69270
O207        O  0.31312862  0.83857340  0.50524093    -0.47940
C208        C  0.36132224  0.84625040  0.50734633     0.76990
O209        O  0.26338324  0.58092228  0.34204267    -0.64600
O210        O  0.26818599  0.64463248  0.40974288    -0.51790
C211        C  0.26606226  0.62904948  0.35891291     0.75370
Zr212      Zr  0.25498164  0.99658065  0.38393205     2.77540
O213        O  0.32982917  0.49212265  0.31925342    -0.95350
O214        O  0.19466596  0.49811724  0.31118296    -0.76150
Zr215      Zr  0.35824894  0.98523303  0.50357089     2.70070
O216        O  0.41989916  0.97646106  0.43000533    -0.77410
O217        O  0.42207069  0.97728844  0.57706276    -0.96500
Zr218      Zr  0.26505534  0.59786600  0.49746859     2.21500
Zr219      Zr  0.23960981  0.89631207  0.49779513     2.11130
O220        O  0.30144860  0.93945751  0.44331501    -2.45180
O221        O  0.31713026  0.54199666  0.44215678    -0.77210
O222        O  0.19322067  0.95284696  0.43651930    -0.69400
O223        O  0.31180365  0.54307889  0.55997363    -2.30360
O224        O  0.20746646  0.55148069  0.43740726    -2.26570
O225        O  0.29782652  0.94105571  0.55794825    -0.71160
H226        H  0.16570869  0.93410983  0.57529655     0.80840
H227        H  0.33302576  0.56408261  0.58447879     0.81920
H228        H  0.32075837  0.91403429  0.42179468     0.84150
H229        H  0.18916998  0.57577680  0.41346718     0.81750
H230        H  0.34680428  0.49119237  0.66694935     0.44790
H231        H  0.41063154  0.94734800  0.59983043     0.43760
H232        H  0.41806260  0.51102831  0.40832509     0.43440
H233        H  0.34427326  0.96028846  0.32875787     0.41370
H234        H  0.15719434  0.99113656  0.33195023     0.44500
H235        H  0.09428807  0.54548187  0.39704368     0.39290
H236        H  0.09970932  0.53187375  0.59324495     0.45400
H237        H  0.16036828  0.96682955  0.67099275     0.41820
H238        H  0.30771305  0.98274834  0.28264505     0.46740
H239        H  0.05068439  0.03875458  0.43915489     0.45460
H240        H  0.19481962  0.99763812  0.71347880     0.45600
H241        H  0.45284344  0.96349330  0.55843597     0.45960
C242        C  0.47190356  0.74719644  0.49015280     0.02940
C243        C  0.03319898  0.74735489  0.50127141     0.02940
C244        C  0.25744681  0.74475239  0.24349986    -0.00110
C245        C  0.22956996  0.99611240  0.99706794     0.02940
C246        C  0.28160817  0.99811638  0.00223162     0.02940
O247        O  0.08955022  0.75266439  0.84352928    -0.72910
O248        O  0.14943777  0.75717744  0.91298094    -0.51820
C249        C  0.13560394  0.75510999  0.86181132     0.80810
O250        O  0.40314447  0.88586112  0.00085995    -0.57520
O251        O  0.35030900  0.81483597  0.99093401    -0.50540
C252        C  0.35873906  0.86528396  0.99497440     0.72830
O253        O  0.07210548  0.90175119  0.99537065    -0.72070
O254        O  0.14089821  0.84552825  0.99973694    -0.52640
C255        C  0.12016204  0.89231412  0.99651049     0.78830
O256        O  0.41968588  0.74511163  0.84060088    -0.57220
O257        O  0.36028563  0.73487810  0.90763096    -0.50340
C258        C  0.37377335  0.74044222  0.85724460     0.75420
Zr259      Zr  0.00470789  0.74727158  0.88170295     2.54710
O260        O  0.00043337  0.81886238  0.81483018    -0.77780
O261        O  0.50731017  0.67666338  0.81301842    -0.91200
Zr262      Zr  0.99209515  0.85582491  0.00051360     2.64680
O263        O  0.98337398  0.92558350  0.93175339    -0.96160
O264        O  0.48702251  0.91940267  0.07743784    -0.78220
O265        O  0.04776114  0.80765805  0.94148336    -0.81570
O266        O  0.44938153  0.79752447  0.93950795    -2.16280
O267        O  0.43815221  0.58930288  0.98649354    -0.64960
O268        O  0.36954815  0.64564969  0.99130960    -0.49530
C269        C  0.39020181  0.59880433  0.98739468     0.73810
O270        O  0.09019735  0.74196906  0.15311261    -0.57870
O271        O  0.14930604  0.75597218  0.08663662    -0.49850
C272        C  0.13598989  0.74792131  0.13666227     0.75610
O273        O  0.41975214  0.74524423  0.15089517    -0.69270
O274        O  0.36000860  0.73651016  0.08178257    -0.47940
C275        C  0.37372400  0.74170554  0.13281061     0.76990
O276        O  0.10539348  0.60509588  0.99765086    -0.64600
O277        O  0.15826512  0.67629520  0.00580587    -0.51790
C278        C  0.14966108  0.62578882  0.00351540     0.75370
Zr279      Zr  0.01729499  0.63558285  0.99408180     2.77540
O280        O  0.02155093  0.56927906  0.06674196    -0.95350
O281        O  0.02847882  0.57004578  0.92049932    -0.76170
Zr282      Zr  0.00489171  0.74407112  0.11248975     2.70070
O283        O  0.00509837  0.67430024  0.18141625    -0.77410
O284        O  0.00550903  0.81593846  0.18059302    -0.96500
Zr285      Zr  0.10351726  0.75620007  0.99919059     2.21500
Zr286      Zr  0.40590976  0.73550729  0.99530395     2.11130
O287        O  0.46138062  0.68405222  0.05363396    -2.45180
O288        O  0.06022670  0.69444931  0.05493131    -0.77210
O289        O  0.46123056  0.68563094  0.93649274    -0.69400
O290        O  0.04850659  0.80638151  0.05834886    -2.30360
O291        O  0.06072680  0.69584572  0.93807072    -2.26570
O292        O  0.44855688  0.79570197  0.05641175    -0.71160
H293        H  0.42585938  0.81789240  0.91691273     0.80840
H294        H  0.06789656  0.83000821  0.08202912     0.81920
H295        H  0.44211109  0.65973989  0.07549688     0.84150
H296        H  0.08452357  0.67602535  0.91566563     0.81750
H297        H  0.02196733  0.91875642  0.09417808     0.44790
H298        H  0.47729004  0.83970057  0.17108842     0.43760
H299        H  0.02341918  0.64416374  0.16378233     0.43440
H300        H  0.48893718  0.57106358  0.08489073     0.41370
H301        H  0.50329657  0.58256219  0.89136913     0.44500
H302        H  0.03931919  0.65666033  0.82040641     0.39290
H303        H  0.01275016  0.85049166  0.83546384     0.45400
H304        H  0.45399740  0.91517444  0.90802862     0.41820
H305        H  0.02353599  0.53477096  0.04678017     0.46740
H306        H  0.51391203  0.69498324  0.77789627     0.45460
H307        H  0.97090960  0.95711785  0.95254192     0.45600
H308        H  0.99513700  0.79902162  0.21532934     0.45960
C309        C  0.30850089  0.54890029  0.99210148    -0.14050
C310        C  0.35903155  0.55027532  0.98533222    -0.29230
H311        H  0.28850089  0.58660720  0.99349387     0.14970
H312        H  0.38018895  0.51316186  0.98087807     0.15540
C313        C  0.15127589  0.94060222  0.99175328    -0.14050
C314        C  0.20118944  0.94466905  0.00412762    -0.29230
H315        H  0.13006762  0.97535918  0.97804273     0.14970
H316        H  0.22040095  0.90999678  0.02101013     0.15540
C317        C  0.31493092  0.95065960  0.01641810    -0.14050
C318        C  0.31496013  0.90317424  0.98960236    -0.29230
H319        H  0.34636087  0.95852280  0.04492092     0.14970
H320        H  0.28525324  0.89386674  0.95957386     0.15540
C321        C  0.19637115  0.54266306  0.98048124    -0.14050
C322        C  0.19294411  0.58790079  0.01094282    -0.29230
H323        H  0.16833533  0.53662106  0.94762125     0.14970
H324        H  0.21896087  0.59475223  0.04543809     0.15540
C325        C  0.30124201  0.74609754  0.20693902    -0.10900
C326        C  0.33457139  0.74429501  0.17331244    -0.12450
C327        C  0.21114981  0.74302941  0.20948091    -0.10900
C328        C  0.17570424  0.74484921  0.17750404    -0.12450
C329        C  0.25092784  0.82251912  0.31719032    -0.10900
C330        C  0.25518773  0.79067784  0.28026747    -0.12450
C331        C  0.26493631  0.66773409  0.31653858    -0.10900
C332        C  0.26152930  0.69920511  0.27973361    -0.12450
C333        C  0.39340033  0.79842919  0.50959802    -0.14050
C334        C  0.44255916  0.79806433  0.49501418    -0.29230
H335        H  0.37477934  0.76173502  0.52046081     0.14970
H336        H  0.46026953  0.83519398  0.48400300     0.15540
C337        C  0.11152959  0.69425944  0.48897420    -0.14050
C338        C  0.06279700  0.69638340  0.50423241    -0.29230
H339        H  0.12989158  0.72998430  0.47469443     0.14970
H340        H  0.04507281  0.66049681  0.51888765     0.15540
C341        C  0.06668370  0.83915100  0.47988128    -0.14050
C342        C  0.06356314  0.79675758  0.51321090    -0.29230
H343        H  0.03996622  0.84423956  0.44573752     0.14970
H344        H  0.09186661  0.79327964  0.54624291     0.15540
C345        C  0.43730463  0.65805289  0.51276521    -0.14050
C346        C  0.44047297  0.69905571  0.47804093    -0.29230
H347        H  0.46491757  0.65356788  0.54625996     0.14970
H348        H  0.41190661  0.70269215  0.44530241     0.15540
C349        C  0.29842776  0.74706024  0.78473845    -0.10900
C350        C  0.33403405  0.74333685  0.81636557    -0.12450
C351        C  0.17475161  0.75389648  0.82147404    -0.10900
C352        C  0.20822011  0.75138694  0.78816192    -0.12450
C353        C  0.25062069  0.79527782  0.71540258    -0.10900
C354        C  0.24762364  0.82671968  0.67857769    -0.12450
C355        C  0.24963792  0.70389546  0.71431896    -0.10900
C356        C  0.25091187  0.67215009  0.67713610    -0.12450
C357        C  0.75240872  0.24773872  0.75170328    -0.00110
O358        O  0.61190662  0.08792179  0.49976119    -0.72910
O359        O  0.67730052  0.14725917  0.50183660    -0.51820
C360        C  0.63015979  0.13571568  0.50290384     0.80810
O361        O  0.75585031  0.41063528  0.65238944    -0.57520
O362        O  0.75328796  0.34703087  0.58455575    -0.50540
C363        C  0.75493127  0.36251330  0.63539806     0.72830
O364        O  0.74747665  0.08220947  0.65367399    -0.72070
O365        O  0.74974455  0.14460091  0.58596328    -0.52640
C366        C  0.74739345  0.13002986  0.63667583     0.78830
O367        O  0.61192074  0.40131864  0.48653035    -0.57220
O368        O  0.67935112  0.34287192  0.48647552    -0.50340
C369        C  0.63149880  0.35356582  0.48382038     0.75420
Zr370      Zr  0.64439603  0.49482208  0.49294148     2.54710
O371        O  0.58128649  0.49180995  0.56523221    -0.77780
O372        O  0.57998060  0.49842234  0.41970880    -0.91200
Zr373      Zr  0.75101146  0.49647727  0.61107188     2.64680
O374        O  0.68293947  0.99502718  0.67736534    -0.96160
O375        O  0.81542616  0.49960123  0.68426671    -0.78220
O376        O  0.69835292  0.04638261  0.55395055    -0.81570
O377        O  0.69801527  0.44391372  0.55306326    -2.16280
O378        O  0.75699879  0.40761290  0.34209137    -0.64960
O379        O  0.76160846  0.34544354  0.41009214    -0.49530
C380        C  0.76017421  0.35990363  0.35922143     0.73810
O381        O  0.89679742  0.08984066  0.50307821    -0.57870
O382        O  0.82944687  0.14800405  0.50617766    -0.49850
C383        C  0.87716017  0.13730849  0.50640296     0.75610
O384        O  0.89798623  0.40847582  0.51188251    -0.69270
O385        O  0.83508486  0.34620911  0.50968260    -0.47940
C386        C  0.88175215  0.36031534  0.51441327     0.76990
O387        O  0.75754647  0.07959514  0.34254278    -0.64600
O388        O  0.75515425  0.14316136  0.41047727    -0.51790
C389        C  0.75659103  0.12769748  0.35960860     0.75370
Zr390      Zr  0.75584720  0.49447384  0.38302914     2.77540
O391        O  0.82479540  0.99346017  0.31696736    -0.95350
O392        O  0.69025163  0.99428889  0.31332596    -0.76150
Zr393      Zr  0.86233682  0.49880911  0.50084458     2.70070
O394        O  0.92419693  0.49300750  0.42725192    -0.77410
O395        O  0.92793938  0.50468708  0.57265497    -0.96500
Zr396      Zr  0.75376423  0.09617685  0.49833753     2.21500
Zr397      Zr  0.75585896  0.39439732  0.49723883     2.11130
O398        O  0.81117491  0.44474627  0.44135039    -2.45180
O399        O  0.81025798  0.04738342  0.44111270    -0.77210
O400        O  0.70085678  0.44351117  0.43719653    -0.69400
O401        O  0.80802076  0.04727285  0.55894983    -2.30360
O402        O  0.70003283  0.04575246  0.43811263    -2.26570
O403        O  0.80843594  0.44672979  0.55662061    -0.71160
H404        H  0.67757933  0.42056409  0.57478482     0.80840
H405        H  0.82750770  0.07051895  0.58293708     0.81920
H406        H  0.83287465  0.42159977  0.41977819     0.84150
H407        H  0.67973764  0.06883034  0.41470073     0.81750
H408        H  0.84926436  0.00563670  0.66575569     0.44790
H409        H  0.91994118  0.47604411  0.59878896     0.43760
H410        H  0.91256605  0.01998088  0.40056296     0.43440
H411        H  0.84576213  0.46274430  0.32587087     0.41370
H412        H  0.65934069  0.48072295  0.33014700     0.44500
H413        H  0.59100942  0.03177905  0.39928507     0.39290
H414        H  0.59459164  0.01628881  0.59471752     0.45400
H415        H  0.66271108  0.46245399  0.66772503     0.41820
H416        H  0.80755692  0.48395442  0.28069137     0.46740
H417        H  0.54816450  0.50815680  0.43887124     0.45460
H418        H  0.69803805  0.48902363  0.71249340     0.45600
H419        H  0.95948067  0.49236186  0.55448303     0.45960
C420        C  0.97782745  0.24743258  0.49073597     0.02940
C421        C  0.52564149  0.24443613  0.49060041     0.02940
C422        C  0.75764504  0.24266971  0.24347855    -0.00110
C423        C  0.72947003  0.49590385  0.99805719     0.02940
C424        C  0.78156079  0.49777454  0.00187380     0.02940
O425        O  0.59093177  0.25454064  0.84438694    -0.72910
O426        O  0.65047447  0.25876108  0.91419423    -0.51820
C427        C  0.63689755  0.25715344  0.86290976     0.80810
O428        O  0.90361223  0.38609456  0.00129109    -0.57520
O429        O  0.85085074  0.31516231  0.99015097    -0.50540
C430        C  0.85932305  0.36559604  0.99445983     0.72830
O431        O  0.57170588  0.40290617  0.00282745    -0.72070
O432        O  0.64050621  0.34657576  0.00275584    -0.52640
C433        C  0.61967653  0.39348211  0.00309722     0.78830
O434        O  0.92054831  0.24391411  0.84052971    -0.57220
O435        O  0.86094420  0.23348196  0.90731132    -0.50340
C436        C  0.87464910  0.23846282  0.85696078     0.75420
Zr437      Zr  0.50591514  0.24839400  0.88197459     2.54710
O438        O  0.50258619  0.31956785  0.81459684    -0.77780
O439        O  0.00874149  0.17915305  0.81176019    -0.91200
Zr440      Zr  0.49240010  0.35611386  0.00142507     2.64680
O441        O  0.48682931  0.42435273  0.93078394    -0.96160
O442        O  0.98287346  0.42084016  0.07673229    -0.78220
O443        O  0.54858353  0.30861019  0.94234991    -0.81570
O444        O  0.94966197  0.29789054  0.93998637    -2.16280
O445        O  0.93741544  0.08935241  0.98246941    -0.64960
O446        O  0.86938930  0.14613156  0.99045062    -0.49530
C447        C  0.88955155  0.09930809  0.98450148     0.73810
O448        O  0.58978800  0.24376961  0.15396968    -0.57870
O449        O  0.64917586  0.25753581  0.08770718    -0.49850
C450        C  0.63560473  0.25019589  0.13775704     0.75610
O451        O  0.91910779  0.24012639  0.15064237    -0.69270
O452        O  0.85963289  0.23404338  0.08095469    -0.47940
C453        C  0.87318987  0.23697409  0.13217638     0.76990
O454        O  0.60539501  0.10536981  0.99863578    -0.64600
O455        O  0.65831033  0.17651606  0.00763839    -0.51790
C456        C  0.64960654  0.12600643  0.00532503     0.75370
Zr457      Zr  0.51734027  0.13598955  0.99358303     2.77540
O458        O  0.52087059  0.06854613  0.06513425    -0.95350
O459        O  0.52900660  0.07145844  0.91913825    -0.76170
Zr460      Zr  0.50466337  0.24366743  0.11271596     2.70070
O461        O  0.50444928  0.17188009  0.17937438    -0.77410
O462        O  0.50525721  0.31362375  0.18294652    -0.96500
Zr463      Zr  0.60390110  0.25671737  0.00006658     2.21500
Zr464      Zr  0.90607631  0.23548751  0.99504920     2.11130
O465        O  0.96097132  0.18285655  0.05277242    -2.45180
O466        O  0.56020402  0.19450787  0.05500603    -0.77210
O467        O  0.96147114  0.18621705  0.93585735    -0.69400
O468        O  0.54836291  0.30619410  0.05916552    -2.30360
O469        O  0.56147188  0.19655993  0.93839573    -2.26570
O470        O  0.94828987  0.29475601  0.05741985    -0.71160
H471        H  0.92620864  0.31828664  0.91732986     0.80840
H472        H  0.56747808  0.32965876  0.08328217     0.81920
H473        H  0.94150897  0.15826435  0.07408836     0.84150
H474        H  0.58545897  0.17691114  0.91606704     0.81750
H475        H  0.51370488  0.41251559  0.10189730     0.44790
H476        H  0.97411732  0.33523773  0.17372122     0.43760
H477        H  0.52551291  0.14342520  0.16238032     0.43440
H478        H  0.98629437  0.06912540  0.08168722     0.41370
H479        H  0.00516392  0.08334731  0.88913804     0.44500
H480        H  0.54067717  0.15771441  0.82092022     0.39290
H481        H  0.51713913  0.35063918  0.83437867     0.45400
H482        H  0.95762102  0.41334262  0.90733039     0.41820
H483        H  0.52141283  0.03428542  0.04461473     0.46740
H484        H  0.01648463  0.19810730  0.77731194     0.45460
H485        H  0.47492277  0.45671261  0.95057137     0.45600
H486        H  0.49469749  0.29580457  0.21711402     0.45960
C487        C  0.80907026  0.04985917  0.99722691    -0.14050
C488        C  0.85745755  0.05160436  0.98067636    -0.29230
H489        H  0.79092467  0.08685644  0.00936780     0.14970
H490        H  0.87633122  0.01499195  0.96766515     0.15540
C491        C  0.65043582  0.44221030  0.00200434    -0.14050
C492        C  0.70139487  0.44437302  0.00540099    -0.29230
H493        H  0.62845999  0.47869960  0.99722269     0.14970
H494        H  0.72161072  0.40767104  0.01414798     0.15540
C495        C  0.81457792  0.45024976  0.01647595    -0.14050
C496        C  0.81587138  0.40361923  0.98812419    -0.29230
H497        H  0.84480059  0.45750835  0.04665967     0.14970
H498        H  0.78758087  0.39530202  0.95619504     0.15540
C499        C  0.69886801  0.04481132  0.98112826    -0.14050
C500        C  0.69249595  0.08792538  0.01418074    -0.29230
H501        H  0.67514647  0.04178539  0.94412458     0.14970
H502        H  0.71491019  0.09204042  0.05195744     0.15540
C503        C  0.80084197  0.23942935  0.20625280    -0.10900
C504        C  0.83397746  0.23752032  0.17249325    -0.12450
C505        C  0.71083403  0.24567347  0.21040494    -0.10900
C506        C  0.67514988  0.24825769  0.17882382    -0.12450
C507        C  0.76198183  0.32046216  0.31700369    -0.10900
C508        C  0.76140732  0.28855624  0.27993563    -0.12450
C509        C  0.75687513  0.16631530  0.31726691    -0.10900
C510        C  0.75707494  0.19734474  0.28001530    -0.12450
C511        C  0.91906574  0.31753439  0.52468865    -0.14050
C512        C  0.94631913  0.29649534  0.48352664    -0.29230
H513        H  0.92053947  0.29975091  0.56535491     0.14970
H514        H  0.94411930  0.31406353  0.44274131     0.15540
C515        C  0.59691305  0.18264065  0.51136985    -0.14050
C516        C  0.55332086  0.19225952  0.48381866    -0.29230
H517        H  0.61232926  0.21373734  0.53801481     0.14970
H518        H  0.53764838  0.16160530  0.45683530     0.15540
C519        C  0.59883630  0.30595040  0.47409547    -0.14050
C520        C  0.55499686  0.29578797  0.49999072    -0.29230
H521        H  0.61440812  0.27524017  0.44717214     0.14970
H522        H  0.53979057  0.32595793  0.52779508     0.15540
C523        C  0.90960050  0.18453147  0.51409612    -0.14050
C524        C  0.95151456  0.19471483  0.48530484    -0.29230
H525        H  0.89477233  0.21497331  0.54161769     0.14970
H526        H  0.96566897  0.16490665  0.45646520     0.15540
C527        C  0.79921802  0.24292174  0.78458738    -0.10900
C528        C  0.83505768  0.23964635  0.81590314    -0.12450
C529        C  0.67618986  0.25649857  0.82263855    -0.10900
C530        C  0.70939263  0.25324190  0.78900785    -0.12450
C531        C  0.75469008  0.29276458  0.71489263    -0.10900
C532        C  0.75530232  0.32387442  0.67773420    -0.12450
C533        C  0.74675496  0.20176691  0.71561734    -0.10900
C534        C  0.74550668  0.16954685  0.67884599    -0.12450
C535        C  0.75169198  0.74673480  0.75186080    -0.00110
O536        O  0.61035688  0.58854422  0.49851078    -0.72910
O537        O  0.67565652  0.64798107  0.50020351    -0.51820
C538        C  0.62852821  0.63643568  0.50160150     0.80810
O539        O  0.75701813  0.90990592  0.65332470    -0.57520
O540        O  0.75407154  0.84616848  0.58558517    -0.50540
C541        C  0.75581374  0.86178599  0.63638152     0.72830
O542        O  0.74576723  0.58279902  0.65236582    -0.72070
O543        O  0.74824048  0.64512905  0.58460234    -0.52640
C544        C  0.74583161  0.63056871  0.63532558     0.78830
O545        O  0.61226273  0.90169737  0.48844261    -0.57220
O546        O  0.67936066  0.84281711  0.48768379    -0.50340
C547        C  0.63148222  0.85385700  0.48547192     0.75420
Zr548      Zr  0.64590700  0.99451355  0.49417991     2.54710
O549        O  0.58168486  0.99207713  0.56534593    -0.77780
O550        O  0.58357013  0.99844950  0.41887093    -0.91200
Zr551      Zr  0.75252608  0.99577075  0.61218471     2.64680
O552        O  0.68139235  0.49556889  0.67620418    -0.96160
O553        O  0.81719524  0.99867633  0.68512769    -0.78220
O554        O  0.69671745  0.54685203  0.55266110    -0.81570
O555        O  0.69945718  0.94333181  0.55411037    -2.16280
O556        O  0.75735408  0.90729436  0.34310514    -0.64960
O557        O  0.76223909  0.84472757  0.41075463    -0.49530
C558        C  0.76052640  0.85948915  0.35996415     0.73810
O559        O  0.89537253  0.59166570  0.50055646    -0.57870
O560        O  0.82738351  0.64897574  0.50281296    -0.49850
C561        C  0.87523470  0.63903148  0.50275716     0.75610
O562        O  0.89999936  0.90742798  0.51201026    -0.69270
O563        O  0.83687230  0.84543600  0.51127529    -0.47940
C564        C  0.88373828  0.85936195  0.51540099     0.76990
O565        O  0.75671067  0.57985037  0.34115604    -0.64600
O566        O  0.75346872  0.64344243  0.40900032    -0.51790
C567        C  0.75543348  0.62794464  0.35818400     0.75370
Zr568      Zr  0.75687952  0.99405966  0.38422726     2.77540
O569        O  0.82416585  0.49390527  0.31622059    -0.95350
O570        O  0.68978569  0.49419315  0.31152293    -0.76150
Zr571      Zr  0.86352103  0.99741423  0.50158396     2.70070
O572        O  0.92441384  0.99254496  0.42699355    -0.77410
O573        O  0.92956694  0.00263003  0.57296855    -0.96500
Zr574      Zr  0.75198352  0.59666693  0.49692011     2.21500
Zr575      Zr  0.75695006  0.89328858  0.49821538     2.11130
O576        O  0.81207807  0.94370340  0.44216453    -2.45180
O577        O  0.80884837  0.54808668  0.44001797    -0.77210
O578        O  0.70209322  0.94295039  0.43846934    -0.69400
O579        O  0.80640854  0.54838335  0.55792729    -2.30360
O580        O  0.69849862  0.54596168  0.43663156    -2.26570
O581        O  0.80958208  0.94563297  0.55753150    -0.71160
H582        H  0.67890613  0.92013302  0.57587448     0.80840
H583        H  0.82575566  0.57188376  0.58177977     0.81920
H584        H  0.83366266  0.92057989  0.42043113     0.84150
H585        H  0.67817331  0.56891706  0.41311568     0.81750
H586        H  0.84746727  0.50710600  0.66507227     0.44790
H587        H  0.92150866  0.97403174  0.59913173     0.43760
H588        H  0.91205547  0.51928619  0.39972441     0.43440
H589        H  0.84632706  0.96218554  0.32638396     0.41370
H590        H  0.66055659  0.97857014  0.33143889     0.44500
H591        H  0.58827653  0.53038460  0.39822598     0.39290
H592        H  0.59347493  0.51757169  0.59350963     0.45400
H593        H  0.66413848  0.96199518  0.66885008     0.41820
H594        H  0.80794288  0.98367170  0.28152315     0.46740
H595        H  0.55081650  0.00571880  0.43725177     0.45460
H596        H  0.69958257  0.98837567  0.71363435     0.45600
H597        H  0.96093354  0.99010710  0.55458542     0.45960
C598        C  0.98146004  0.74660439  0.49454841     0.02940
C599        C  0.52395419  0.74622453  0.49158268     0.02940
C600        C  0.75785271  0.74345080  0.24290848    -0.00110
C601        C  0.72968957  0.99610689  0.99715389     0.02940
C602        C  0.78172880  0.99791111  0.00218129     0.02940
O603        O  0.58961517  0.75377773  0.84390077    -0.72910
O604        O  0.64947706  0.75822533  0.91337845    -0.51820
C605        C  0.63566190  0.75644167  0.86219667     0.80810
O606        O  0.90333655  0.88555514  0.00076065    -0.57520
O607        O  0.85052969  0.81452886  0.99083867    -0.50540
C608        C  0.85892590  0.86498915  0.99488738     0.72830
O609        O  0.57193214  0.90233355  0.99585026    -0.72070
O610        O  0.64072939  0.84609321  0.99988484    -0.52640
C611        C  0.61998361  0.89287364  0.99689595     0.78830
O612        O  0.91964331  0.74194475  0.84047671    -0.57220
O613        O  0.86040166  0.73249519  0.90778680    -0.50340
C614        C  0.87382635  0.73680025  0.85727532     0.75420
Zr615      Zr  0.50476616  0.74769208  0.88203190     2.54710
O616        O  0.50139032  0.81856182  0.81431335    -0.77780
O617        O  0.00780787  0.67706515  0.81180591    -0.91200
Zr618      Zr  0.49195069  0.85633690  0.00066622     2.64680
O619        O  0.48323338  0.92588820  0.93168624    -0.96160
O620        O  0.98743913  0.91888985  0.07730947    -0.78220
O621        O  0.54770441  0.80818606  0.94174362    -0.81570
O622        O  0.94935970  0.79720836  0.93913488    -2.16280
O623        O  0.93799587  0.58891693  0.98418452    -0.64960
O624        O  0.86979299  0.64559491  0.99098800    -0.49530
C625        C  0.89011940  0.59875472  0.98578430     0.73810
O626        O  0.59013003  0.74503850  0.15356538    -0.57870
O627        O  0.64916675  0.75847412  0.08686374    -0.49850
C628        C  0.63585956  0.75140077  0.13704089     0.75610
O629        O  0.91993101  0.74155620  0.15055187    -0.69270
O630        O  0.86023511  0.73395046  0.08125126    -0.47940
C631        C  0.87396659  0.73769646  0.13235303     0.76990
O632        O  0.60542529  0.60553971  0.99867916    -0.64600
O633        O  0.65816854  0.67682969  0.00704738    -0.51790
C634        C  0.64962919  0.62628904  0.00493068     0.75370
Zr635      Zr  0.51736430  0.63622865  0.99457226     2.77540
O636        O  0.52233865  0.56935701  0.06663875    -0.95350
O637        O  0.52808713  0.57134600  0.92027680    -0.76170
Zr638      Zr  0.50479981  0.74485240  0.11281143     2.70070
O639        O  0.50471174  0.67391203  0.18044154    -0.77410
O640        O  0.50586242  0.81582314  0.18192732    -0.96500
Zr641      Zr  0.60346561  0.75680838  0.99949996     2.21500
Zr642      Zr  0.90618317  0.73517121  0.99510065     2.11130
O643        O  0.96149454  0.68341613  0.05321200    -2.45180
O644        O  0.56026033  0.69515195  0.05542960    -0.77210
O645        O  0.96131400  0.68527496  0.93622156    -0.69400
O646        O  0.54833718  0.80700817  0.05848974    -2.30360
O647        O  0.56084921  0.69634411  0.93841573    -2.26570
O648        O  0.94863892  0.79527798  0.05639677    -0.71160
H649        H  0.92571971  0.81737403  0.91647363     0.80840
H650        H  0.56764916  0.83075123  0.08211529     0.81920
H651        H  0.94220492  0.65902433  0.07495661     0.84150
H652        H  0.58471099  0.67655981  0.91605450     0.81750
H653        H  0.52144357  0.91913206  0.09457028     0.44790
H654        H  0.97622416  0.83895313  0.16998502     0.43760
H655        H  0.52555592  0.64515542  0.16366926     0.43440
H656        H  0.98737228  0.56978266  0.08329536     0.41370
H657        H  0.00536108  0.58223767  0.89043249     0.44500
H658        H  0.53915723  0.65670034  0.82125358     0.39290
H659        H  0.51200535  0.85071977  0.83519467     0.45400
H660        H  0.95418853  0.91489161  0.90800935     0.41820
H661        H  0.52230604  0.53492691  0.04642394     0.46740
H662        H  0.01517312  0.69571991  0.77707431     0.45460
H663        H  0.47084095  0.95749912  0.95240027     0.45600
H664        H  0.49454863  0.79877183  0.21622371     0.45960
C665        C  0.80903869  0.54956364  0.99583978    -0.14050
C666        C  0.85832749  0.55081281  0.98255396    -0.29230
H667        H  0.79019764  0.58709603  0.00425584     0.14970
H668        H  0.87804907  0.51382929  0.97250392     0.15540
C669        C  0.65113254  0.94111351  0.99239189    -0.14050
C670        C  0.70117928  0.94479160  0.00416508    -0.29230
H671        H  0.62991295  0.97609717  0.97932136     0.14970
H672        H  0.72040354  0.90987860  0.02047673     0.15540
C673        C  0.81510398  0.95043745  0.01627266    -0.14050
C674        C  0.81510484  0.90288942  0.98955082    -0.29230
H675        H  0.84663967  0.95837130  0.04461397     0.14970
H676        H  0.78533119  0.89351478  0.95962635     0.15540
C677        C  0.69798181  0.54410404  0.98181658    -0.14050
C678        C  0.69278632  0.58840986  0.01343559    -0.29230
H679        H  0.67225194  0.53931970  0.94660537     0.14970
H680        H  0.71673006  0.59404410  0.04987603     0.15540
C681        C  0.80141207  0.74031740  0.20617970    -0.10900
C682        C  0.83483007  0.73836627  0.17275486    -0.12450
C683        C  0.71130338  0.74695706  0.20944382    -0.10900
C684        C  0.67561321  0.74963394  0.17787833    -0.12450
C685        C  0.76210979  0.82034067  0.31745250    -0.10900
C686        C  0.76152305  0.78889823  0.27996221    -0.12450
C687        C  0.75606416  0.66654198  0.31589215    -0.10900
C688        C  0.75672712  0.69777896  0.27887915    -0.12450
C689        C  0.92117213  0.81663134  0.52684630    -0.14050
C690        C  0.95190617  0.79726669  0.48760695    -0.29230
H691        H  0.91936903  0.79678369  0.56637374     0.14970
H692        H  0.95238389  0.81630953  0.44757126     0.15540
C693        C  0.59536963  0.68348527  0.51091039    -0.14050
C694        C  0.55166073  0.69392540  0.48379011    -0.29230
H695        H  0.61100537  0.71407859  0.53803077     0.14970
H696        H  0.53581333  0.66374716  0.45634715     0.15540
C697        C  0.59822395  0.80661619  0.47589189    -0.14050
C698        C  0.55356182  0.79745712  0.50076688    -0.29230
H699        H  0.61382088  0.77548470  0.44952151     0.14970
H700        H  0.53830869  0.82806072  0.52800409     0.15540
C701        C  0.90671200  0.68749513  0.50823950    -0.14050
C702        C  0.95363938  0.69427726  0.48837526    -0.29230
H703        H  0.88772216  0.72074197  0.52801232     0.14970
H704        H  0.97192727  0.66085044  0.46767153     0.15540
C705        C  0.79820001  0.74102674  0.78511206    -0.10900
C706        C  0.83401786  0.73762994  0.81644836    -0.12450
C707        C  0.67485324  0.75563615  0.82187505    -0.10900
C708        C  0.70835233  0.75229562  0.78863971    -0.12450
C709        C  0.75478209  0.79213341  0.71577514    -0.10900
C710        C  0.75586818  0.82330177  0.67875381    -0.12450
C711        C  0.74576283  0.70144583  0.71496883    -0.10900
C712        C  0.74418903  0.66992707  0.67759099    -0.12450
loop_ 
_geom_bond_atom_site_label_1 
_geom_bond_atom_site_label_2 
_geom_bond_distance 
_geom_bond_site_symmetry_2 
_ccdc_geom_bond_type 
C1          C171   1.459       .  S
C1          C174   1.462       .  S
C1          C175   1.448       .  S
C1          C177   1.447       .  S
O2            C4   1.294       .  A
O2         Zr192   2.465       .  S
O3            C4   1.283       .  A
O3          Zr40   2.402       .  S
C4          C159   1.476       .  S
O5            C7   1.274       .  A
O5          Zr17   2.384       .  S
O6            C7   1.289       .  A
O6          Zr41   2.442       .  S
C7          C176   1.417       .  S
O8           C10   1.274       .  A
O8         Zr195   2.382   1_545  S
O9           C10   1.289       .  A
O9          Zr40   2.442       .  S
C10         C178   1.416       .  S
O11          C13   1.296       .  A
O11         Zr14   2.487       .  S
O12          C13   1.284       .  A
O12         Zr41   2.411       .  S
C13         C163   1.481       .  S
Zr14        O180   2.463       .  S
Zr14         O15   2.435       .  S
Zr14         O16   2.436       .  S
Zr14         O21   2.368       .  S
Zr14         O44   2.369       .  S
Zr14        O198   2.377       .  S
Zr14        O224   2.382       .  S
O15         H236   0.990       .  S
O16          H61   0.990       .  S
O16         H235   0.990       .  S
Zr17        O186   2.387       .  S
Zr17         O19   2.434       .  S
Zr17        O196   2.437       .  S
Zr17         O21   2.372       .  S
Zr17         O47   2.360       .  S
Zr17        O198   2.357       .  S
Zr17        O223   2.367       .  S
O18        Zr195   2.437   1_545  S
O18         H237   0.990   1_545  S
O18         H240   0.990   1_545  S
O19         H230   0.990       .  S
O20         Zr40   2.385       .  S
O20        Zr192   2.370       .  S
O20        Zr195   2.359   1_545  S
O21         Zr41   2.378       .  S
O21          H48   0.966       .  S
O22          C24   1.274       .  A
O22         Zr34   2.386       .  S
O23          C24   1.289       .  A
O23         Zr41   2.445       .  S
C24         C151   1.418       .  S
O25          C27   1.287       .  A
O25        Zr215   2.449   1_545  S
O26          C27   1.293       .  A
O26         Zr40   2.452       .  S
C27         C167   1.487       .  S
O28          C30   1.289       .  A
O28         Zr37   2.442       .  S
O29          C30   1.279       .  A
O29         Zr41   2.385       .  S
C30         C155   1.454       .  S
O31          C33   1.275       .  A
O31        Zr212   2.388   1_545  S
O32          C33   1.289       .  A
O32         Zr40   2.442       .  S
C33         C153   1.417       .  S
Zr34        O209   2.393       .  S
Zr34        O213   2.435       .  S
Zr34        O214   2.434       .  S
Zr34         O42   2.365       .  S
Zr34         O44   2.369       .  S
Zr34        O221   2.368       .  S
Zr34        O224   2.357       .  S
O35        Zr212   2.436       .  S
O35         H233   0.990       .  S
O35         H238   0.990       .  S
O36        Zr212   2.434   1_545  S
O36         H234   0.990   1_545  S
Zr37        O203   2.441       .  S
Zr37         O38   2.435       .  S
Zr37         O39   2.436       .  S
Zr37         O42   2.367       .  S
Zr37         O47   2.369       .  S
Zr37        O221   2.374       .  S
Zr37        O223   2.372       .  S
O38         H232   0.990       .  S
O39          H53   0.990       .  S
O39          H63   0.990       .  S
Zr40         O43   2.373       .  S
Zr40         O45   2.378       .  S
Zr40         O46   2.391       .  S
Zr41         O42   2.383       .  S
Zr41         O44   2.372       .  S
Zr41         O47   2.376       .  S
O42          H50   0.966       .  S
O43        Zr212   2.372   1_545  S
O43        Zr215   2.369   1_545  S
O45        Zr195   2.370   1_545  S
O45        Zr215   2.368   1_545  S
O45          H49   0.966       .  S
O46        Zr192   2.373       .  S
O46        Zr212   2.362   1_545  S
O46          H51   0.966       .  S
H52         O197   0.990   1_565  S
H54         O216   0.990   1_545  S
H55         O213   0.990       .  S
H56         O214   0.990       .  S
H57         O194   0.990       .  S
H58         O193   0.990       .  S
H59         O196   0.990       .  S
H60         O213   0.990       .  S
H62         O196   0.990       .  S
C64         C156   1.483       .  S
C64         C168   1.503       .  S
C64         C421   1.365       .  D
C65         C160   1.501       .  S
C65         C164   1.504       .  S
C65         C420   1.363   1_455  D
C66         C147   1.461       .  S
C66         C149   1.459       .  S
C66         C152   1.449       .  S
C66         C154   1.448       .  S
C67         C136   1.512   1_556  S
C67         C321   1.510       .  S
C67          C68   1.374       .  D
C68         C139   1.510   1_556  S
C68         C309   1.511       .  S
O69          C71   1.285       .  A
O69         Zr81   2.435       .  S
O70          C71   1.287       .  A
O70        Zr107   2.430   1_556  S
C71         C173   1.431       .  S
O72          C74   1.287       .  A
O72        Zr440   2.436   1_556  S
O73          C74   1.293       .  A
O73        Zr108   2.462       .  S
C74         C140   1.486       .  S
O75          C77   1.282       .  A
O75         Zr84   2.410   1_455  S
O76          C77   1.295       .  A
O76        Zr107   2.466       .  S
C77         C135   1.478       .  S
O78          C80   1.286       .  A
O78        Zr437   2.440       .  S
O79          C80   1.285       .  A
O79        Zr108   2.416       .  S
C80         C172   1.427       .  S
Zr81        O434   2.440   1_455  S
Zr81         O82   2.434       .  S
Zr81        O439   2.435       .  S
Zr81         O87   2.375       .  S
Zr81        O113   2.373       .  S
Zr81        O444   2.370   1_455  S
Zr81        O467   2.369   1_455  S
O82         H125   0.990       .  S
O83        Zr437   2.435       .  S
O83         H128   0.990       .  S
O83         H480   0.990       .  S
Zr84        O428   2.437       .  S
Zr84         O85   2.437   1_554  S
Zr84        O442   2.435       .  S
Zr84         O87   2.377   1_654  S
Zr84        O112   2.373   1_655  S
Zr84        O444   2.362   1_554  S
Zr84        O470   2.364       .  S
O85         H129   0.990       .  S
O85         H482   0.990       .  S
O86        Zr440   2.435       .  S
O86         H475   0.990       .  S
O87        Zr107   2.388   1_556  S
O88        Zr108   2.384       .  S
O88        Zr437   2.369       .  S
O88        Zr440   2.359   1_556  S
O88         H115   0.965       .  S
O89          C91   1.283       .  A
O89        Zr457   2.418       .  S
O90          C91   1.293       .  A
O90        Zr108   2.458       .  S
C91         C132   1.478       .  S
O92          C94   1.286       .  A
O92        Zr104   2.438       .  S
O93          C94   1.285       .  A
O93        Zr107   2.416       .  S
C94         C150   1.428       .  S
O95          C97   1.284       .  A
O95        Zr460   2.431       .  S
O96          C97   1.287       .  A
O96        Zr108   2.428   1_554  S
C97         C148   1.430       .  S
O98         C100   1.286   1_556  A
O98        Zr101   2.434       .  S
O99         C100   1.293       .  A
O99        Zr107   2.465       .  S
C100        C144   1.485       .  S
Zr101       O445   2.417   1_455  S
Zr101       O102   2.437   1_556  S
Zr101       O103   2.434       .  S
Zr101       O110   2.364   1_556  S
Zr101       O113   2.362       .  S
Zr101       O465   2.375   1_456  S
Zr101       O467   2.370   1_455  S
O102        H127   0.990       .  S
O102        H478   0.990   1_455  S
O103        H479   0.990       .  S
Zr104       O451   2.431   1_455  S
Zr104       O105   2.434       .  S
Zr104       O106   2.435       .  S
Zr104       O110   2.367       .  S
Zr104       O112   2.367       .  S
Zr104       O465   2.373   1_455  S
Zr104       O470   2.372   1_455  S
O105        H121   0.990       .  S
O106        H130   0.990   1_455  S
O106        H476   0.990   1_455  S
Zr107       O110   2.381       .  S
Zr107       O112   2.391       .  S
Zr107       O113   2.388   1_554  S
Zr108       O109   2.392   1_556  S
Zr108       O111   2.388       .  S
Zr108       O114   2.382   1_556  S
O109       Zr457   2.376   1_554  S
O109       Zr460   2.374       .  S
O109        H117   0.966       .  S
O111       Zr437   2.369       .  S
O111       Zr457   2.371       .  S
O112        H116   0.966       .  S
O113        H118   0.966       .  S
O114       Zr440   2.361       .  S
O114       Zr460   2.371       .  S
H119        O442   0.990   1_455  S
H120        O462   0.990       .  S
H122        O458   0.990       .  S
H123        O459   0.990       .  S
H124        O439   0.990       .  S
H126        O441   0.990       .  S
C131        C246   1.507   1_546  S
C131        C132   1.343       .  D
C131        H133   1.081   1_556  S
C132        H134   1.087       .  S
C135        C136   1.343       .  D
C135        H137   1.086       .  S
C136        H138   1.079       .  S
C139        C140   1.352   1_554  D
C139        H141   1.087       .  S
C140        H142   1.085       .  S
C143        C245   1.511   1_545  S
C143        C144   1.351   1_556  D
C143        H145   1.087       .  S
C144        H146   1.085       .  S
C147        C148   1.204       .  T
C149        C150   1.203       .  T
C151        C152   1.198       .  T
C153        C154   1.198       .  T
C155        C156   1.337       .  D
C155        H157   1.087       .  S
C156        H158   1.087       .  S
C159        C160   1.342       .  D
C159        H161   1.084       .  S
C160        H162   1.083       .  S
C163        C164   1.344       .  D
C163        H165   1.086       .  S
C164        H166   1.086       .  S
C167        C168   1.344       .  D
C167        H169   1.086       .  S
C168        H170   1.088       .  S
C171        C172   1.202       .  T
C173        C174   1.205       .  T
C175        C176   1.198       .  T
C177        C178   1.197       .  T
C179        C349   1.461       .  S
C179        C352   1.462       .  S
C179        C353   1.450       .  S
C179        C355   1.449       .  S
O180        C182   1.293       .  A
O181        C182   1.282       .  A
O181       Zr218   2.394       .  S
C182        C337   1.465       .  S
O183        C185   1.275       .  A
O183       Zr195   2.391       .  S
O184        C185   1.289       .  A
O184       Zr219   2.440       .  S
C185        C354   1.420       .  S
O186        C188   1.275       .  A
O187        C188   1.289       .  A
O187       Zr218   2.441       .  S
C188        C356   1.418       .  S
O189        C191   1.292       .  A
O189       Zr192   2.467   1_565  S
O190        C191   1.292       .  A
O190       Zr219   2.446       .  S
C191        C341   1.492       .  S
Zr192       O193   2.434       .  S
Zr192       O194   2.436       .  S
Zr192       O199   2.374   1_545  S
Zr192       O222   2.374   1_545  S
O194        H239   0.990       .  S
Zr195       O197   2.434   1_565  S
Zr195       O199   2.368       .  S
Zr195       O225   2.355       .  S
O198       Zr218   2.387       .  S
O199       Zr219   2.380       .  S
O199        H226   0.966       .  S
O200        C202   1.276       .  A
O200       Zr212   2.394       .  S
O201        C202   1.290       .  A
O201       Zr219   2.447       .  S
C202        C329   1.422       .  S
O203        C205   1.286       .  A
O204        C205   1.293       .  A
O204       Zr218   2.450       .  S
C205        C345   1.481       .  S
O206        C208   1.287       .  A
O206       Zr215   2.433       .  S
O207        C208   1.285       .  A
O207       Zr219   2.410       .  S
C208        C333   1.462       .  S
O209        C211   1.276       .  A
O210        C211   1.289       .  A
O210       Zr218   2.442       .  S
C211        C331   1.421       .  S
Zr212       O220   2.360       .  S
Zr212       O222   2.368       .  S
Zr215       O216   2.435       .  S
Zr215       O217   2.436       .  S
Zr215       O220   2.372       .  S
Zr215       O225   2.373       .  S
O217        H231   0.990       .  S
O217        H241   0.990       .  S
Zr218       O221   2.371       .  S
Zr218       O223   2.376       .  S
Zr218       O224   2.390       .  S
Zr219       O220   2.388       .  S
Zr219       O222   2.378       .  S
Zr219       O225   2.381       .  S
O220        H228   0.966       .  S
O223        H227   0.966       .  S
O224        H229   0.966       .  S
C242        C334   1.491       .  S
C242        C346   1.498       .  S
C242        C599   1.369       .  D
C243        C338   1.493       .  S
C243        C342   1.508       .  S
C243        C598   1.368   1_455  D
C244        C325   1.465       .  S
C244        C327   1.460       .  S
C244        C330   1.453       .  S
C244        C332   1.452       .  S
C245        C314   1.514   1_556  S
C245        C246   1.374   1_556  D
C246        C317   1.511       .  S
O247        C249   1.285       .  A
O247       Zr259   2.435       .  S
O248        C249   1.287       .  A
O248       Zr285   2.429       .  S
C249        C351   1.430       .  S
O250        C252   1.288   1_554  A
O250       Zr618   2.443       .  S
O251        C252   1.293       .  A
O251       Zr286   2.462       .  S
C252        C318   1.491       .  S
O253        C255   1.283       .  A
O253       Zr262   2.418   1_456  S
O254        C255   1.293       .  A
O254       Zr285   2.462       .  S
C255        C313   1.479       .  S
O256        C258   1.286       .  A
O256       Zr615   2.439       .  S
O257        C258   1.286       .  A
O257       Zr286   2.423       .  S
C258        C350   1.430       .  S
Zr259       O612   2.440   1_455  S
Zr259       O260   2.434       .  S
Zr259       O617   2.435       .  S
Zr259       O265   2.373       .  S
Zr259       O622   2.370   1_455  S
Zr259       O645   2.368   1_455  S
Zr259       O291   2.374       .  S
O260        H303   0.990       .  S
O261       Zr615   2.435       .  S
O261        H658   0.990       .  S
O261        H306   0.990       .  S
Zr262       O606   2.443       .  S
Zr262       O263   2.437   1_554  S
Zr262       O620   2.436       .  S
Zr262       O622   2.364   1_554  S
Zr262       O265   2.376   1_654  S
Zr262       O290   2.374   1_655  S
Zr262       O648   2.364       .  S
O263        H660   0.990       .  S
O263        H307   0.990       .  S
O264       Zr618   2.436       .  S
O264        H653   0.990       .  S
O265       Zr285   2.389       .  S
O266       Zr615   2.370       .  S
O266       Zr618   2.362   1_556  S
O266       Zr286   2.387       .  S
O266        H293   0.965       .  S
O267        C269   1.281       .  A
O267       Zr635   2.411       .  S
O268        C269   1.295       .  A
O268       Zr286   2.464       .  S
C269        C310   1.478       .  S
O270        C272   1.285       .  A
O270       Zr282   2.436       .  S
O271        C272   1.285       .  A
O271       Zr285   2.420   1_554  S
C272        C328   1.429       .  S
O273        C275   1.285       .  A
O273       Zr638   2.433       .  S
O274        C275   1.288       .  A
O274       Zr286   2.434   1_554  S
C275        C326   1.434       .  S
O276        C278   1.286   1_556  A
O276       Zr279   2.433       .  S
O277        C278   1.293       .  A
O277       Zr285   2.463   1_554  S
C278        C322   1.486       .  S
Zr279       O623   2.413   1_455  S
Zr279       O280   2.437   1_556  S
Zr279       O281   2.434       .  S
Zr279       O643   2.375   1_456  S
Zr279       O288   2.363   1_556  S
Zr279       O291   2.361       .  S
Zr279       O645   2.371   1_455  S
O280        H656   0.990   1_455  S
O280        H305   0.990       .  S
O281        H657   0.990       .  S
Zr282       O629   2.433   1_455  S
Zr282       O283   2.434       .  S
Zr282       O284   2.435       .  S
Zr282       O288   2.368       .  S
Zr282       O643   2.374   1_455  S
Zr282       O648   2.371   1_455  S
Zr282       O290   2.371       .  S
O283        H299   0.990       .  S
O284        H654   0.990   1_455  S
O284        H308   0.990   1_455  S
Zr285       O288   2.379   1_556  S
Zr285       O290   2.393   1_556  S
Zr285       O291   2.388       .  S
Zr286       O287   2.393   1_556  S
Zr286       O289   2.389       .  S
Zr286       O292   2.384   1_556  S
O287       Zr635   2.377   1_554  S
O287       Zr638   2.375       .  S
O287        H295   0.966       .  S
O289       Zr615   2.370       .  S
O289       Zr635   2.372       .  S
O290        H294   0.966       .  S
O291        H296   0.966       .  S
O292       Zr618   2.362       .  S
O292       Zr638   2.370       .  S
H297        O620   0.990   1_455  S
H298        O640   0.990       .  S
H300        O636   0.990       .  S
H301        O637   0.990       .  S
H302        O617   0.990       .  S
H304        O619   0.990       .  S
C309        C310   1.343       .  D
C309        H311   1.079       .  S
C310        H312   1.086       .  S
C313        C314   1.347   1_556  D
C313        H315   1.083       .  S
C314        H316   1.083       .  S
C317        C318   1.354   1_554  D
C317        H319   1.087       .  S
C318        H320   1.085       .  S
C321        C322   1.353   1_556  D
C321        H323   1.087       .  S
C322        H324   1.085       .  S
C325        C326   1.206       .  T
C327        C328   1.203       .  T
C329        C330   1.200       .  T
C331        C332   1.200       .  T
C333        C334   1.346       .  D
C333        H335   1.086       .  S
C334        H336   1.086       .  S
C337        C338   1.340       .  D
C337        H339   1.087       .  S
C338        H340   1.086       .  S
C341        C342   1.348       .  D
C341        H343   1.084       .  S
C342        H344   1.088       .  S
C345        C346   1.341       .  D
C345        H347   1.086       .  S
C346        H348   1.088       .  S
C349        C350   1.204       .  T
C351        C352   1.204       .  T
C353        C354   1.199       .  T
C355        C356   1.198       .  T
C357        C527   1.460       .  S
C357        C530   1.463       .  S
C357        C531   1.450       .  S
C357        C533   1.450       .  S
O358        C360   1.300       .  A
O358       Zr548   2.506   1_545  S
O359        C360   1.277       .  A
O359       Zr396   2.376       .  S
C360        C515   1.475       .  S
O361        C363   1.275       .  A
O361       Zr373   2.389       .  S
O362        C363   1.288       .  A
O362       Zr397   2.440       .  S
C363        C532   1.419       .  S
O364        C366   1.275       .  A
O364       Zr551   2.389   1_545  S
O365        C366   1.288       .  A
O365       Zr396   2.440       .  S
C366        C534   1.419       .  S
O367        C369   1.302       .  A
O367       Zr370   2.513       .  S
O368        C369   1.285       .  A
O368       Zr397   2.415       .  S
C369        C519   1.496       .  S
Zr370       O536   2.514       .  S
Zr370       O371   2.434       .  S
Zr370       O372   2.435       .  S
Zr370       O554   2.375       .  S
Zr370       O377   2.383       .  S
Zr370       O400   2.383       .  S
Zr370       O580   2.383       .  S
O371        H592   0.990       .  S
O372        H591   0.990       .  S
O372        H417   0.990       .  S
Zr373       O542   2.384       .  S
Zr373       O552   2.436       .  S
Zr373       O375   2.434       .  S
Zr373       O377   2.368       .  S
Zr373       O554   2.361       .  S
Zr373       O579   2.371       .  S
Zr373       O403   2.360       .  S
O374       Zr551   2.436       .  S
O374        H593   0.990       .  S
O374        H596   0.990       .  S
O375        H586   0.990       .  S
O376       Zr548   2.375   1_545  S
O376       Zr551   2.360   1_545  S
O376       Zr396   2.376       .  S
O377       Zr397   2.383       .  S
O377        H404   0.966       .  S
O378        C380   1.275       .  A
O378       Zr390   2.390       .  S
O379        C380   1.288       .  A
O379       Zr397   2.439       .  S
C380        C507   1.418       .  S
O381        C383   1.297       .  A
O381       Zr571   2.493   1_545  S
O382        C383   1.280       .  A
O382       Zr396   2.396       .  S
C383        C523   1.479       .  S
O384        C386   1.291       .  A
O384       Zr393   2.462       .  S
O385        C386   1.285       .  A
O385       Zr397   2.414       .  S
C386        C511   1.468       .  S
O387        C389   1.274       .  A
O387       Zr568   2.385   1_545  S
O388        C389   1.289       .  A
O388       Zr396   2.445       .  S
C389        C509   1.420       .  S
Zr390       O565   2.384       .  S
Zr390       O569   2.437       .  S
Zr390       O570   2.434       .  S
Zr390       O398   2.367       .  S
Zr390       O577   2.369       .  S
Zr390       O580   2.371       .  S
Zr390       O400   2.365       .  S
O391       Zr568   2.436       .  S
O391        H589   0.990       .  S
O391        H594   0.990       .  S
O392       Zr568   2.434       .  S
O392        H590   0.990       .  S
Zr393       O559   2.501       .  S
Zr393       O394   2.435       .  S
Zr393       O395   2.435       .  S
Zr393       O577   2.370       .  S
Zr393       O398   2.383       .  S
Zr393       O403   2.385       .  S
Zr393       O579   2.370       .  S
O394        H588   0.990       .  S
O395        H409   0.990       .  S
O395        H419   0.990       .  S
Zr396       O399   2.371       .  S
Zr396       O401   2.373       .  S
Zr396       O402   2.382       .  S
Zr397       O398   2.386       .  S
Zr397       O400   2.379       .  S
Zr397       O403   2.378       .  S
O398        H406   0.966       .  S
O399       Zr568   2.369   1_545  S
O399       Zr571   2.370   1_545  S
O401       Zr551   2.368   1_545  S
O401       Zr571   2.371   1_545  S
O401        H405   0.966       .  S
O402       Zr548   2.381   1_545  S
O402       Zr568   2.369   1_545  S
O402        H407   0.966       .  S
H408        O553   0.990   1_545  S
H410        O572   0.990   1_545  S
H411        O569   0.990       .  S
H412        O570   0.990       .  S
H413        O550   0.990   1_545  S
H414        O549   0.990   1_545  S
H415        O552   0.990       .  S
H416        O569   0.990       .  S
H418        O552   0.990       .  S
C420        C512   1.488       .  S
C420        C524   1.506       .  S
C421        C516   1.502       .  S
C421        C520   1.526       .  S
C422        C503   1.463       .  S
C422        C505   1.460       .  S
C422        C508   1.449       .  S
C422        C510   1.450       .  S
C423        C492   1.512   1_556  S
C423        C677   1.512       .  S
C423        C424   1.373   1_556  D
C424        C665   1.506   1_554  S
C424        C495   1.510       .  S
O425        C427   1.285       .  A
O425       Zr437   2.435       .  S
O426        C427   1.288       .  A
O426       Zr463   2.432   1_556  S
C427        C529   1.432       .  S
O428        C430   1.287   1_554  A
O429        C430   1.293       .  A
O429       Zr464   2.463       .  S
C430        C496   1.488       .  S
O431        C433   1.281       .  A
O431       Zr440   2.407       .  S
O432        C433   1.295       .  A
O432       Zr463   2.466       .  S
C433        C491   1.477       .  S
O434        C436   1.286       .  A
O435        C436   1.285       .  A
O435       Zr464   2.418       .  S
C436        C528   1.429       .  S
Zr437       O438   2.434       .  S
Zr437       O443   2.374       .  S
Zr437       O469   2.373       .  S
O438        H481   0.990       .  S
O439        H484   0.990       .  S
Zr440       O441   2.437   1_554  S
Zr440       O443   2.377   1_554  S
Zr440       O468   2.372       .  S
O441        H485   0.990       .  S
O443       Zr463   2.388   1_556  S
O444       Zr464   2.385       .  S
O444        H471   0.966       .  S
O445        C447   1.282       .  A
O446        C447   1.293       .  A
O446       Zr464   2.456       .  S
C447        C488   1.476       .  S
O448        C450   1.286       .  A
O448       Zr460   2.437       .  S
O449        C450   1.285       .  A
O449       Zr463   2.418       .  S
C450        C506   1.429       .  S
O451        C453   1.284       .  A
O452        C453   1.287       .  A
O452       Zr464   2.430   1_554  S
C453        C504   1.431       .  S
O454        C456   1.286   1_556  A
O454       Zr457   2.434       .  S
O455        C456   1.294       .  A
O455       Zr463   2.466       .  S
C456        C500   1.485       .  S
Zr457       O458   2.437   1_556  S
Zr457       O459   2.434       .  S
Zr457       O466   2.365   1_556  S
Zr457       O469   2.363       .  S
O458        H483   0.990       .  S
Zr460       O461   2.434       .  S
Zr460       O462   2.435       .  S
Zr460       O466   2.367       .  S
Zr460       O468   2.368       .  S
O461        H477   0.990       .  S
O462        H486   0.990       .  S
Zr463       O466   2.381       .  S
Zr463       O468   2.391       .  S
Zr463       O469   2.389   1_554  S
Zr464       O465   2.392   1_556  S
Zr464       O467   2.388       .  S
Zr464       O470   2.383   1_556  S
O465        H473   0.966       .  S
O468        H472   0.966       .  S
O469        H474   0.966       .  S
C487        C602   1.505   1_546  S
C487        C488   1.342       .  D
C487        H489   1.081   1_556  S
C488        H490   1.087       .  S
C491        C492   1.343       .  D
C491        H493   1.085   1_554  S
C492        H494   1.081       .  S
C495        C496   1.353   1_554  D
C495        H497   1.087       .  S
C496        H498   1.085       .  S
C499        C601   1.511   1_545  S
C499        C500   1.352   1_556  D
C499        H501   1.087       .  S
C500        H502   1.085       .  S
C503        C504   1.205       .  T
C505        C506   1.203       .  T
C507        C508   1.198       .  T
C509        C510   1.199       .  T
C511        C512   1.338       .  D
C511        H513   1.086       .  S
C512        H514   1.087       .  S
C515        C516   1.338       .  D
C515        H517   1.087       .  S
C516        H518   1.086       .  S
C519        C520   1.350       .  D
C519        H521   1.086       .  S
C520        H522   1.086       .  S
C523        C524   1.342       .  D
C523        H525   1.083       .  S
C524        H526   1.086       .  S
C527        C528   1.203       .  T
C529        C530   1.205       .  T
C531        C532   1.199       .  T
C533        C534   1.198       .  T
C535        C705   1.460       .  S
C535        C708   1.462       .  S
C535        C709   1.448       .  S
C535        C711   1.449       .  S
O536        C538   1.302       .  A
O537        C538   1.277       .  A
O537       Zr574   2.376       .  S
C538        C693   1.479       .  S
O539        C541   1.274       .  A
O539       Zr551   2.388       .  S
O540        C541   1.288       .  A
O540       Zr575   2.438       .  S
C541        C710   1.418       .  S
O542        C544   1.274       .  A
O543        C544   1.288       .  A
O543       Zr574   2.441       .  S
C544        C712   1.418       .  S
O545        C547   1.301       .  A
O545       Zr548   2.507       .  S
O546        C547   1.287       .  A
O546       Zr575   2.425       .  S
C547        C697   1.498       .  S
Zr548       O549   2.434       .  S
Zr548       O550   2.435       .  S
Zr548       O555   2.383       .  S
Zr548       O578   2.381       .  S
O550        H595   0.990   1_565  S
Zr551       O553   2.434       .  S
Zr551       O555   2.369       .  S
Zr551       O581   2.362       .  S
O554       Zr574   2.376       .  S
O555       Zr575   2.385       .  S
O555        H582   0.966       .  S
O556        C558   1.275       .  A
O556       Zr568   2.389       .  S
O557        C558   1.289       .  A
O557       Zr575   2.440       .  S
C558        C685   1.418       .  S
O559        C561   1.299       .  A
O560        C561   1.280       .  A
O560       Zr574   2.394       .  S
C561        C701   1.485       .  S
O562        C564   1.291       .  A
O562       Zr571   2.461       .  S
O563        C564   1.288       .  A
O563       Zr575   2.428       .  S
C564        C689   1.474       .  S
O565        C567   1.274       .  A
O566        C567   1.289       .  A
O566       Zr574   2.444       .  S
C567        C687   1.419       .  S
Zr568       O576   2.368       .  S
Zr568       O578   2.365       .  S
Zr571       O572   2.434       .  S
Zr571       O573   2.435   1_565  S
Zr571       O576   2.381       .  S
Zr571       O581   2.384       .  S
O573        H587   0.990   1_545  S
O573        H597   0.990   1_545  S
Zr574       O577   2.370       .  S
Zr574       O579   2.374       .  S
Zr574       O580   2.383       .  S
Zr575       O576   2.386       .  S
Zr575       O578   2.380       .  S
Zr575       O581   2.378       .  S
O576        H584   0.966       .  S
O579        H583   0.966       .  S
O580        H585   0.966       .  S
C598        C690   1.494       .  S
C598        C702   1.518       .  S
C599        C694   1.508       .  S
C599        C698   1.526       .  S
C600        C681   1.463       .  S
C600        C683   1.460       .  S
C600        C686   1.449       .  S
C600        C688   1.449       .  S
C601        C670   1.512   1_556  S
C601        C602   1.373   1_556  D
C602        C673   1.512       .  S
O603        C605   1.285       .  A
O603       Zr615   2.436       .  S
O604        C605   1.287       .  A
O604       Zr641   2.429       .  S
C605        C707   1.431       .  S
O606        C608   1.288   1_554  A
O607        C608   1.293       .  A
O607       Zr642   2.463       .  S
C608        C674   1.492       .  S
O609        C611   1.283       .  A
O609       Zr618   2.418   1_556  S
O610        C611   1.293       .  A
O610       Zr641   2.460       .  S
C611        C669   1.478       .  S
O612        C614   1.286       .  A
O613        C614   1.285       .  A
O613       Zr642   2.418       .  S
C614        C706   1.429       .  S
Zr615       O616   2.434       .  S
Zr615       O621   2.372       .  S
Zr615       O647   2.374       .  S
O616        H659   0.990       .  S
O617        H662   0.990       .  S
Zr618       O619   2.437   1_554  S
Zr618       O621   2.376   1_554  S
Zr618       O646   2.372       .  S
O619        H663   0.990       .  S
O621       Zr641   2.388       .  S
O622       Zr642   2.386       .  S
O622        H649   0.966       .  S
O623        C625   1.282       .  A
O624        C625   1.294       .  A
O624       Zr642   2.458       .  S
C625        C666   1.476       .  S
O626        C628   1.286       .  A
O626       Zr638   2.438       .  S
O627        C628   1.285       .  A
O627       Zr641   2.417   1_554  S
C628        C684   1.429       .  S
O629        C631   1.285       .  A
O630        C631   1.287       .  A
O630       Zr642   2.429   1_554  S
C631        C682   1.431       .  S
O632        C634   1.286   1_556  A
O632       Zr635   2.434       .  S
O633        C634   1.293       .  A
O633       Zr641   2.465   1_554  S
C634        C678   1.486       .  S
Zr635       O636   2.437   1_556  S
Zr635       O637   2.434       .  S
Zr635       O644   2.363   1_556  S
Zr635       O647   2.361       .  S
O636        H661   0.990       .  S
Zr638       O639   2.434       .  S
Zr638       O640   2.435       .  S
Zr638       O644   2.368       .  S
Zr638       O646   2.370       .  S
O639        H655   0.990       .  S
O640        H664   0.990       .  S
Zr641       O644   2.379   1_556  S
Zr641       O646   2.392   1_556  S
Zr641       O647   2.388       .  S
Zr642       O643   2.391   1_556  S
Zr642       O645   2.387       .  S
Zr642       O648   2.383   1_556  S
O643        H651   0.966       .  S
O646        H650   0.966       .  S
O647        H652   0.966       .  S
C665        C666   1.341       .  D
C665        H667   1.080   1_556  S
C666        H668   1.087       .  S
C669        C670   1.347   1_556  D
C669        H671   1.083       .  S
C670        H672   1.083       .  S
C673        C674   1.354   1_554  D
C673        H675   1.087       .  S
C674        H676   1.085       .  S
C677        C678   1.352   1_556  D
C677        H679   1.087       .  S
C678        H680   1.085       .  S
C681        C682   1.205       .  T
C683        C684   1.203       .  T
C685        C686   1.198       .  T
C687        C688   1.198       .  T
C689        C690   1.342       .  D
C689        H691   1.086       .  S
C690        H692   1.086       .  S
C693        C694   1.340       .  D
C693        H695   1.087       .  S
C694        H696   1.086       .  S
C697        C698   1.352       .  D
C697        H699   1.086       .  S
C698        H700   1.086       .  S
C701        C702   1.345       .  D
C701        H703   1.080       .  S
C702        H704   1.086       .  S
C705        C706   1.203       .  T
C707        C708   1.204       .  T
C709        C710   1.198       .  T
C711        C712   1.198       .  T
