geometry optimzed in LAMMPS
_audit_creation_date              2020-12-01 
_audit_creation_method            'lammps2cif' 
_symmetry_space_group_name_H-M    'P1' 
_symmetry_Int_Tables_number       1 
_symmetry_cell_setting            triclinic 
loop_ 
_symmetry_equiv_pos_as_xyz 
  x,y,z 
_cell_length_a                    42.76380802 
_cell_length_b                    42.82575230069421 
_cell_length_c                    72.13443777968172 
_cell_angle_alpha                 90.05012442215566 
_cell_angle_beta                  90.04255223149171 
_cell_angle_gamma                 89.76985724183751 
loop_ 
_atom_site_label 
_atom_site_type_symbol 
_atom_site_fract_x 
_atom_site_fract_y 
_atom_site_fract_z 
_atom_site_charge 
O1          O  0.07741127  0.82136959  0.55050481    -0.74600
O2          O  0.15227486  0.82005153  0.52106745    -0.74600
O3          O  0.13361551  0.79226889  0.55268182    -0.74700
O4          O  0.09524317  0.84865187  0.51884458    -0.74700
O5          O  0.11489208  0.88919836  0.53435389    -0.74600
O6          O  0.15064605  0.83224506  0.56977465    -0.74600
O7          O  0.17103761  0.85922771  0.53804980    -0.74600
O8          O  0.09568246  0.86269383  0.56588771    -0.74700
Ni9        Ni  0.11410103  0.81913944  0.53514069     1.25400
Ni10       Ni  0.13392024  0.86227094  0.55253719     1.25400
C11         C  0.07397665  0.84302142  0.56264621     0.87600
C12         C  0.17434582  0.83910931  0.52506269     0.87500
C13         C  0.14757273  0.80283652  0.56702767     0.87600
C14         C  0.09730521  0.87807711  0.52155895     0.87700
O15         O  0.86865557  0.78413486  0.67128262    -0.74600
O16         O  0.87405731  0.86490062  0.69354474    -0.74600
O17         O  0.84070146  0.81240860  0.70032656    -0.74700
O18         O  0.90150529  0.83625544  0.66451782    -0.74700
O19         O  0.86352518  0.85241398  0.64556116    -0.74600
O20         O  0.80272821  0.83049961  0.68204130    -0.74600
O21         O  0.83686686  0.88261026  0.67460611    -0.74600
O22         O  0.82966266  0.80091455  0.65322031    -0.74700
Ni23       Ni  0.87252402  0.82391293  0.68313520     1.25400
Ni24       Ni  0.83179660  0.84236039  0.66323698     1.25400
C25         C  0.84846363  0.77931160  0.65850097     0.87600
C26         C  0.85691703  0.88729659  0.68752832     0.87500
C27         C  0.81162669  0.81664397  0.69687065     0.87600
C28         C  0.89249647  0.84730473  0.64891584     0.87700
O29         O  0.14542508  0.61424483  0.66184222    -0.74600
O30         O  0.13911594  0.53734404  0.68823205    -0.74600
O31         O  0.17504371  0.58862886  0.69082295    -0.74700
O32         O  0.10915141  0.56331276  0.65912326    -0.74700
O33         O  0.14290261  0.54039509  0.63990482    -0.74600
O34         O  0.21003207  0.56842684  0.67122772    -0.74600
O35         O  0.17437219  0.51568497  0.66946927    -0.74600
O36         O  0.17865574  0.59189738  0.64191801    -0.74700
Ni37       Ni  0.14096182  0.57647169  0.67569807     1.25400
Ni38       Ni  0.17779022  0.55309531  0.65498650     1.25400
C39         C  0.16290264  0.61557342  0.64748050     0.87600
C40         C  0.15589310  0.51388293  0.68340202     0.87500
C41         C  0.20336429  0.58423153  0.68583582     0.87600
C42         C  0.11490568  0.54869845  0.64402196     0.87700
O43         O  0.91787059  0.56312768  0.55480400    -0.74600
O44         O  0.84043347  0.57357373  0.52895059    -0.74600
O45         O  0.86725017  0.60061622  0.55879326    -0.74700
O46         O  0.89147669  0.53645319  0.52516210    -0.74700
O47         O  0.87016328  0.50071355  0.54372171    -0.74600
O48         O  0.84483722  0.56571623  0.57725823    -0.74600
O49         O  0.81829626  0.53811067  0.54713902    -0.74600
O50         O  0.89559758  0.52814181  0.57333768    -0.74700
Ni51       Ni  0.87986459  0.56972482  0.54126356     1.25400
Ni52       Ni  0.85620877  0.53192070  0.56097715     1.25400
C53         C  0.91968853  0.54350329  0.56816994     0.87600
C54         C  0.81647135  0.55769567  0.53372995     0.87500
C55         C  0.85265514  0.59397639  0.57376860     0.87600
C56         C  0.88667662  0.50798458  0.52956375     0.87700
O57         O  0.61579565  0.68115665  0.80255748    -0.74600
O58         O  0.62769672  0.61551596  0.76721600    -0.74600
O59         O  0.59825354  0.62098394  0.80008331    -0.74700
O60         O  0.64487649  0.67618935  0.76967985    -0.74700
O61         O  0.68884972  0.66096660  0.78376056    -0.74600
O62         O  0.64157294  0.60659180  0.81501911    -0.74600
O63         O  0.67096342  0.60047614  0.78196742    -0.74600
O64         O  0.65979597  0.66675655  0.81676779    -0.74700
Ni65       Ni  0.62013010  0.64889828  0.78432506     1.25400
Ni66       Ni  0.66690661  0.63313246  0.79986185     1.25400
C67         C  0.63604937  0.68491883  0.81546338     0.87600
C68         C  0.65111279  0.59692520  0.76886184     0.87500
C69         C  0.61185959  0.60530103  0.81284831     0.87600
C70         C  0.67444354  0.67806589  0.77191970     0.87700
O71         O  0.44678454  0.59144755  0.91853791    -0.74600
O72         O  0.37461265  0.59314467  0.94972695    -0.74600
O73         O  0.43481667  0.57483008  0.95377621    -0.74700
O74         O  0.38701106  0.61004775  0.91443898    -0.74700
O75         O  0.37500851  0.56241816  0.90418707    -0.74600
O76         O  0.42139266  0.52713907  0.94443106    -0.74600
O77         O  0.36136418  0.54586086  0.93946791    -0.74600
O78         O  0.43427386  0.54355428  0.90920654    -0.74700
Ni79       Ni  0.41116605  0.59407067  0.93451697     1.25400
Ni80       Ni  0.39745975  0.54300600  0.92405494     1.25400
C81         C  0.45242395  0.56718812  0.90864231     0.87600
C82         C  0.35586238  0.56991080  0.94949515     0.87500
C83         C  0.43671040  0.54516300  0.95531834     0.87600
C84         C  0.37424043  0.59214560  0.90243441     0.87700
O85         O  0.36789126  0.74308333  0.78796564    -0.74600
O86         O  0.36790969  0.81409365  0.75582109    -0.74600
O87         O  0.38668595  0.80260189  0.79126496    -0.74700
O88         O  0.34969879  0.75402871  0.75289259    -0.74700
O89         O  0.30228243  0.76679060  0.76309979    -0.74600
O90         O  0.33963128  0.81610281  0.80173987    -0.74600
O91         O  0.32057914  0.82717103  0.76612133    -0.74600
O92         O  0.32059771  0.75658116  0.79821260    -0.74700
Ni93       Ni  0.36972700  0.77816997  0.77158250     1.25400
Ni94       Ni  0.31907937  0.79235473  0.78259523     1.25400
C95         C  0.34411359  0.73806126  0.79833800     0.87600
C96         C  0.34384375  0.83200525  0.75536988     0.87500
C97         C  0.36950066  0.81597026  0.80347243     0.87600
C98         C  0.32000841  0.75106132  0.75214745     0.87700
O99         O  0.50422557  0.83229179  0.92818005    -0.74600
O100        O  0.57000715  0.83934273  0.96417188    -0.74600
O101        O  0.50873111  0.85573200  0.96277984    -0.74700
O102        O  0.56486082  0.81547048  0.92956435    -0.74700
O103        O  0.57729499  0.86125720  0.91702340    -0.74600
O104        O  0.52297114  0.90211618  0.95156748    -0.74600
O105        O  0.58395921  0.88476445  0.95162591    -0.74600
O106        O  0.51687911  0.87892412  0.91686735    -0.74700
Ni107      Ni  0.53653358  0.83410128  0.94667128     1.25400
Ni108      Ni  0.55078544  0.88347340  0.93392983     1.25400
C109        C  0.50001136  0.85429384  0.91637328     0.87600
C110        C  0.58826341  0.86299192  0.96351036     0.87500
C111        C  0.50636303  0.88546585  0.96249422     0.87600
C112        C  0.57932366  0.83141551  0.91729255     0.87700
O113        O  0.56142919  0.35785549  0.05390979    -0.74600
O114        O  0.63523584  0.35713879  0.02452208    -0.74600
O115        O  0.61487042  0.32433555  0.05372009    -0.74700
O116        O  0.58176291  0.39087432  0.02475204    -0.74700
O117        O  0.60279725  0.42552571  0.04420507    -0.74600
O118        O  0.63736574  0.35843730  0.07282136    -0.74600
O119        O  0.65719071  0.39206917  0.04334976    -0.74600
O120        O  0.58332685  0.39191545  0.07333166    -0.74700
Ni121      Ni  0.59761832  0.35636977  0.03853906     1.25400
Ni122      Ni  0.62107316  0.39326346  0.05910549     1.25400
C123        C  0.56007160  0.37504716  0.06839268     0.87600
C124        C  0.65847302  0.37419839  0.02910011     0.87500
C125        C  0.63167930  0.33022339  0.06796526     0.87600
C126        C  0.58577868  0.41903567  0.03012195     0.87700
O127        O  0.34285275  0.30203977  0.16870676    -0.74600
O128        O  0.34978706  0.37955037  0.19463029    -0.74600
O129        O  0.31347139  0.32859741  0.19775326    -0.74700
O130        O  0.37926328  0.35282945  0.16568628    -0.74700
O131        O  0.34484271  0.37435909  0.14625363    -0.74600
O132        O  0.27842942  0.34968543  0.17848962    -0.74600
O133        O  0.31501107  0.40104262  0.17547860    -0.74600
O134        O  0.30801263  0.32351393  0.14949736    -0.74700
Ni135      Ni  0.34756454  0.34007986  0.18239582     1.25400
Ni136      Ni  0.31033376  0.36305875  0.16175477     1.25400
C137        C  0.32416095  0.29995529  0.15487167     0.87600
C138        C  0.33342662  0.40306758  0.18944847     0.87500
C139        C  0.28513611  0.33420606  0.19315252     0.87600
C140        C  0.37303210  0.36722180  0.15061339     0.87700
O141        O  0.63198524  0.14304933  0.16321778    -0.74600
O142        O  0.62656698  0.06752960  0.19152338    -0.74600
O143        O  0.66457363  0.11764677  0.19148188    -0.74700
O144        O  0.59342068  0.09359648  0.16344503    -0.74700
O145        O  0.62383752  0.07001117  0.14267515    -0.74600
O146        O  0.69617583  0.09398726  0.17124794    -0.74600
O147        O  0.65721525  0.04382912  0.17093412    -0.74600
O148        O  0.66354483  0.11905492  0.14306291    -0.74700
Ni149      Ni  0.62803528  0.10620247  0.17815253     1.25400
Ni150      Ni  0.66127414  0.08068978  0.15627741     1.25400
C151        C  0.64896353  0.14344302  0.14857311     0.87600
C152        C  0.64120498  0.04311598  0.18592225     0.87500
C153        C  0.69204651  0.11056382  0.18588578     0.87600
C154        C  0.59661358  0.07887958  0.14814611     0.87700
O155        O  0.39617397  0.07443051  0.05734835    -0.74600
O156        O  0.31583024  0.07742416  0.03385275    -0.74600
O157        O  0.34507108  0.11135905  0.06015789    -0.74700
O158        O  0.36695479  0.04077684  0.03090262    -0.74700
O159        O  0.34904166  0.00887175  0.05287526    -0.74600
O160        O  0.32486796  0.08032178  0.08172198    -0.74600
O161        O  0.29687380  0.04498804  0.05515511    -0.74600
O162        O  0.37666347  0.04374113  0.07931260    -0.74700
Ni163      Ni  0.35662410  0.07710108  0.04479818     1.25400
Ni164      Ni  0.33608259  0.04336432  0.06805336     1.25400
C165        C  0.39977949  0.05852518  0.07224900     0.87600
C166        C  0.29316967  0.06154454  0.04052440     0.87500
C167        C  0.33142710  0.10775439  0.07576346     0.87600
C168        C  0.36225626  0.01328700  0.03716727     0.87700
O169        O  0.88283512  0.24273378  0.29088740    -0.74600
O170        O  0.88901251  0.31129091  0.25672838    -0.74600
O171        O  0.90760947  0.30064093  0.29209791    -0.74700
O172        O  0.86431414  0.25277740  0.25552138    -0.74700
O173        O  0.81891235  0.27108093  0.26608198    -0.74600
O174        O  0.86237126  0.31978736  0.30236222    -0.74600
O175        O  0.84328396  0.32925077  0.26705557    -0.74600
O176        O  0.83775508  0.26197848  0.30141391    -0.74700
Ni177      Ni  0.88756588  0.27623299  0.27338018     1.25400
Ni178      Ni  0.83897815  0.29623979  0.28452869     1.25400
C179        C  0.85944987  0.24132920  0.30198547     0.87600
C180        C  0.86702005  0.33170589  0.25636355     0.87500
C181        C  0.89218590  0.31758258  0.30356903     0.87600
C182        C  0.83439031  0.25328431  0.25508084     0.87700
O183        O  0.03475025  0.33538926  0.42165325    -0.74600
O184        O  0.10451394  0.33464859  0.45519833    -0.74600
O185        O  0.04409262  0.35547990  0.45651230    -0.74700
O186        O  0.09423831  0.31429753  0.42021807    -0.74700
O187        O  0.10842988  0.36036469  0.40859634    -0.74600
O188        O  0.05986512  0.40173633  0.44593088    -0.74600
O189        O  0.11989544  0.38026425  0.44356037    -0.74600
O190        O  0.04945326  0.38182985  0.41104196    -0.74700
Ni191      Ni  0.06893495  0.33334101  0.43889056     1.25400
Ni192      Ni  0.08505753  0.38273488  0.42701479     1.25400
C193        C  0.03082101  0.35852100  0.41060045     0.87600
C194        C  0.12437542  0.35695617  0.45436174     0.87500
C195        C  0.04255124  0.38531289  0.45660674     0.87600
C196        C  0.10862993  0.33046487  0.40801824     0.87700
O197        O  0.11393593  0.17744445  0.29418960    -0.74600
O198        O  0.11487183  0.10959100  0.25976763    -0.74600
O199        O  0.09548629  0.11719832  0.29497820    -0.74700
O200        O  0.13309266  0.17005471  0.25907299    -0.74700
O201        O  0.18031225  0.15618729  0.26924967    -0.74600
O202        O  0.14252306  0.10304306  0.30543693    -0.74600
O203        O  0.16212715  0.09556108  0.26992357    -0.74600
O204        O  0.16102805  0.16334641  0.30444958    -0.74700
Ni205      Ni  0.11269564  0.14398906  0.27660233     1.25400
Ni206      Ni  0.16321721  0.12892047  0.28757874     1.25400
C207        C  0.13733159  0.18172008  0.30498515     0.87600
C208        C  0.13857502  0.09124856  0.25926169     0.87500
C209        C  0.11262280  0.10173101  0.30628160     0.87600
C210        C  0.16282199  0.17288837  0.25872768     0.87700
O211        O  0.96636925  0.07609744  0.42083249    -0.74600
O212        O  0.89621965  0.07853161  0.45373212    -0.74600
O213        O  0.95312877  0.04994986  0.45377335    -0.74700
O214        O  0.91030388  0.10462914  0.42050724    -0.74700
O215        O  0.88984704  0.06394088  0.40576455    -0.74600
O216        O  0.93263806  0.00887157  0.43933364    -0.74600
O217        O  0.87561332  0.03771797  0.43912841    -0.74600
O218        O  0.94614967  0.03487734  0.40632343    -0.74700
Ni219      Ni  0.93210176  0.07870880  0.43778399     1.25400
Ni220      Ni  0.91018143  0.03486045  0.42218527     1.25400
C221        C  0.96781983  0.05521735  0.40812977     0.87600
C222        C  0.87417154  0.05858107  0.45186766     0.87500
C223        C  0.95095652  0.02037176  0.45164025     0.87600
C224        C  0.89388212  0.09351992  0.40722860     0.87700
O225        O  0.64248987  0.30284650  0.66838447    -0.74600
O226        O  0.64275823  0.37798341  0.69680554    -0.74600
O227        O  0.60534271  0.35346596  0.67022899    -0.74700
O228        O  0.67994856  0.32695590  0.69476256    -0.74700
O229        O  0.70896107  0.34924799  0.67274590    -0.74600
O230        O  0.63411818  0.37709059  0.64874712    -0.74600
O231        O  0.67212478  0.40106130  0.67545142    -0.74600
O232        O  0.67107126  0.32622799  0.64660298    -0.74700
Ni233      Ni  0.64162972  0.33962769  0.68337454     1.25400
Ni234      Ni  0.67256793  0.36443845  0.66015943     1.25400
C235        C  0.65673733  0.30222136  0.65279499     0.87600
C236        C  0.65760685  0.40191845  0.69099100     0.87500
C237        C  0.60741005  0.36874270  0.65502744     0.87600
C238        C  0.70653676  0.33254118  0.68735861     0.87700
O239        O  0.42065095  0.35534949  0.55549424    -0.74600
O240        O  0.34485175  0.34954531  0.52721989    -0.74600
O241        O  0.39747534  0.38433131  0.52514964    -0.74700
O242        O  0.36868701  0.32038945  0.55741401    -0.74700
O243        O  0.34688380  0.35616048  0.57584839    -0.74600
O244        O  0.37561162  0.42059724  0.54312941    -0.74600
O245        O  0.32284636  0.38525514  0.54545240    -0.74600
O246        O  0.39847428  0.39140548  0.57347352    -0.74700
Ni247      Ni  0.38360606  0.35117275  0.54062528     1.25400
Ni248      Ni  0.36003125  0.38967999  0.56005121     1.25400
C249        C  0.42184441  0.37390099  0.56943908     0.87600
C250        C  0.32113774  0.36634315  0.53173219     0.87500
C251        C  0.39219211  0.41303716  0.52900659     0.87600
C252        C  0.35414108  0.32771308  0.57228665     0.87700
O253        O  0.35378169  0.13816626  0.66984735    -0.74600
O254        O  0.35700538  0.05788697  0.69293790    -0.74600
O255        O  0.39122645  0.08795724  0.66690124    -0.74700
O256        O  0.31960600  0.10866803  0.69596946    -0.74700
O257        O  0.28820463  0.09031194  0.67379656    -0.74600
O258        O  0.36046724  0.06820418  0.64490346    -0.74600
O259        O  0.32573282  0.03874609  0.67111307    -0.74600
O260        O  0.32277762  0.11871907  0.64781059    -0.74700
Ni261      Ni  0.35646571  0.09871357  0.68224280     1.25400
Ni262      Ni  0.32317003  0.07812803  0.65866189     1.25400
C263        C  0.33783319  0.14153161  0.65494017     0.87600
C264        C  0.34206442  0.03494369  0.68584694     0.87500
C265        C  0.38772022  0.07562003  0.65086765     0.87600
C266        C  0.29221466  0.10409402  0.68939043     0.87700
O267        O  0.57969941  0.09118828  0.55312941    -0.74600
O268        O  0.65603889  0.09019384  0.52499200    -0.74600
O269        O  0.60167572  0.05803005  0.52410901    -0.74700
O270        O  0.63364484  0.12360803  0.55405191    -0.74700
O271        O  0.65334958  0.08872618  0.57385697    -0.74600
O272        O  0.62181392  0.02279244  0.54357067    -0.74600
O273        O  0.67624655  0.05559943  0.54475711    -0.74600
O274        O  0.59985871  0.05579905  0.57240649    -0.74700
Ni275      Ni  0.61716892  0.09200864  0.53833270     1.25400
Ni276      Ni  0.63870255  0.05447678  0.55928416     1.25400
C277        C  0.57715790  0.07348662  0.56739042     0.87600
C278        C  0.67885640  0.07288087  0.53034864     0.87500
C279        C  0.60544681  0.02971933  0.52927493     0.87600
C280        C  0.64784559  0.11705103  0.56916853     0.87700
O281        O  0.11131769  0.24226696  0.80145824    -0.74600
O282        O  0.11890124  0.31054049  0.76761063    -0.74600
O283        O  0.13432118  0.24927337  0.76692270    -0.74700
O284        O  0.09529861  0.30313562  0.80227071    -0.74700
O285        O  0.14159334  0.31295150  0.81524804    -0.74600
O286        O  0.18119867  0.26218635  0.77809545    -0.74600
O287        O  0.16450137  0.32291082  0.78043969    -0.74600
O288        O  0.15873421  0.25258498  0.81265847    -0.74700
Ni289      Ni  0.11329697  0.27599238  0.78411039     1.25400
Ni290      Ni  0.16319320  0.28818367  0.79700343     1.25400
C291        C  0.13379699  0.23616418  0.81264480     0.87600
C292        C  0.14317075  0.32798103  0.76835234     0.87500
C293        C  0.16413121  0.24687085  0.76668476     0.87600
C294        C  0.11173224  0.31575328  0.81506091     0.87700
O295        O  0.94649095  0.33409632  0.92332354    -0.74600
O296        O  0.87344353  0.33798509  0.95363604    -0.74600
O297        O  0.88744784  0.31296722  0.92028669    -0.74700
O298        O  0.93299200  0.35937319  0.95637541    -0.74700
O299        O  0.91838133  0.40378979  0.94266119    -0.74600
O300        O  0.87347773  0.35726663  0.90634040    -0.74600
O301        O  0.85896408  0.38212567  0.93977498    -0.74600
O302        O  0.93267488  0.37853192  0.90950461    -0.74700
Ni303      Ni  0.91046171  0.33456637  0.93896441     1.25400
Ni304      Ni  0.89523769  0.38204584  0.92413189     1.25400
C305        C  0.95172048  0.35550755  0.91136521     0.87600
C306        C  0.85394255  0.36047707  0.95167607     0.87500
C307        C  0.87368512  0.32740275  0.90703794     0.87600
C308        C  0.93440350  0.38910447  0.95485503     0.87700
O309        O  0.87350475  0.17984087  0.79077853    -0.74600
O310        O  0.87769564  0.11066997  0.75700531    -0.74600
O311        O  0.85811148  0.17105226  0.75506082    -0.74700
O312        O  0.89379318  0.12028626  0.79269924    -0.74700
O313        O  0.84651427  0.10608136  0.80232955    -0.74600
O314        O  0.81025789  0.15603714  0.76336677    -0.74600
O315        O  0.83045427  0.09577692  0.76649939    -0.74600
O316        O  0.82555099  0.16550152  0.79915620    -0.74700
Ni317      Ni  0.87741446  0.14593133  0.77350292     1.25400
Ni318      Ni  0.82643407  0.13023336  0.78306670     1.25400
C319        C  0.84877374  0.18401727  0.80055451     0.87600
C320        C  0.85502801  0.09117455  0.75675404     0.87500
C321        C  0.82842813  0.17287178  0.75337980     0.87600
C322        C  0.87640195  0.10538321  0.80404244     0.87700
O323        O  0.01593159  0.07839972  0.92348028    -0.74600
O324        O  0.08249966  0.07838386  0.95924796    -0.74600
O325        O  0.07505170  0.09977983  0.92428125    -0.74700
O326        O  0.02279006  0.05750417  0.95846064    -0.74700
O327        O  0.03963896  0.01167833  0.94760227    -0.74600
O328        O  0.09193166  0.05439000  0.91284809    -0.74600
O329        O  0.09927365  0.03291073  0.94799089    -0.74600
O330        O  0.03285155  0.03281311  0.91254460    -0.74700
Ni331      Ni  0.04854523  0.08011234  0.94181413     1.25400
Ni332      Ni  0.06660797  0.03128092  0.92992706     1.25400
C333        C  0.01351669  0.05567701  0.91194862     0.87600
C334        C  0.10217166  0.05569098  0.95935667     0.87500
C335        C  0.09127479  0.08430063  0.91253225     0.87600
C336        C  0.02191078  0.02768939  0.95836009     0.87700
O337        O  0.37751144  0.69558521  0.28989946    -0.74600
O338        O  0.37197586  0.62339524  0.25865846    -0.74600
O339        O  0.35225917  0.68343474  0.25661191    -0.74700
O340        O  0.39796954  0.63618952  0.29208640    -0.74700
O341        O  0.35390850  0.62326664  0.30654597    -0.74600
O342        O  0.30760681  0.66919496  0.27012777    -0.74600
O343        O  0.32813661  0.60970002  0.27315682    -0.74600
O344        O  0.33267279  0.68235280  0.30334147    -0.74700
Ni345      Ni  0.37652114  0.66000404  0.27377423     1.25400
Ni346      Ni  0.32897698  0.64553556  0.28874111     1.25400
C347        C  0.35582101  0.70098511  0.30174459     0.87600
C348        C  0.34902407  0.60458624  0.26082831     0.87500
C349        C  0.32250695  0.68484528  0.25787442     0.87600
C350        C  0.38384328  0.62281111  0.30550996     0.87700
O351        O  0.53262672  0.60568653  0.42436715    -0.74600
O352        O  0.59885264  0.59839001  0.46014747    -0.74600
O353        O  0.59204694  0.62635053  0.42669404    -0.74700
O354        O  0.53877559  0.57787020  0.45782498    -0.74700
O355        O  0.55575417  0.53445350  0.44403611    -0.74600
O356        O  0.60881500  0.58307008  0.41267313    -0.74600
O357        O  0.61540515  0.55504166  0.44609787    -0.74600
O358        O  0.54963517  0.56232818  0.41064363    -0.74700
Ni359      Ni  0.56503171  0.60360996  0.44281863     1.25400
Ni360      Ni  0.58303112  0.55717124  0.42793043     1.25400
C361        C  0.53043377  0.58531745  0.41139864     0.87600
C362        C  0.61816350  0.57547243  0.45893864     0.87500
C363        C  0.60858934  0.61287978  0.41422288     0.87600
C364        C  0.53811550  0.54815463  0.45588574     0.87700
O365        O  0.47202938  0.84820183  0.42690548    -0.74600
O366        O  0.39779546  0.83938924  0.45585276    -0.74600
O367        O  0.41540326  0.82339748  0.42119446    -0.74700
O368        O  0.45520567  0.86437943  0.46146494    -0.74700
O369        O  0.43807273  0.91021673  0.45096694    -0.74600
O370        O  0.39811737  0.86894915  0.41039333    -0.74600
O371        O  0.38050495  0.88506463  0.44530270    -0.74600
O372        O  0.45502150  0.89394968  0.41630146    -0.74700
Ni373      Ni  0.43558546  0.84226325  0.44180338     1.25400
Ni374      Ni  0.41716014  0.89122568  0.43044894     1.25400
C375        C  0.47575614  0.87223867  0.41661302     0.87600
C376        C  0.37659678  0.86057841  0.45521926     0.87500
C377        C  0.40125695  0.83934484  0.40872945     0.87600
C378        C  0.45460299  0.89416830  0.46234370     0.87700
O379        O  0.62400351  0.76372907  0.30070533    -0.74600
O380        O  0.62420132  0.82980000  0.26489004    -0.74600
O381        O  0.64414839  0.76950792  0.26553280    -0.74700
O382        O  0.60357187  0.82320466  0.30019399    -0.74700
O383        O  0.64978388  0.83817319  0.31130315    -0.74600
O384        O  0.69064512  0.78555062  0.27555250    -0.74600
O385        O  0.67013472  0.84573542  0.27587052    -0.74600
O386        O  0.67091433  0.77885278  0.31071661    -0.74700
Ni387      Ni  0.62235309  0.79610166  0.28237871     1.25400
Ni388      Ni  0.67204142  0.81277612  0.29364873     1.25400
C389        C  0.64750183  0.76045179  0.31160096     0.87600
C390        C  0.64718099  0.84892381  0.26461596     0.87500
C391        C  0.67398640  0.76766490  0.26527819     0.87600
C392        C  0.61979844  0.83855393  0.31196685     0.87700
O393        O  0.11504210  0.79076406  0.16585162    -0.74600
O394        O  0.11408633  0.86844440  0.19206186    -0.74600
O395        O  0.07964533  0.84297759  0.16430599    -0.74700
O396        O  0.14930676  0.81604161  0.19334941    -0.74700
O397        O  0.18190139  0.83612925  0.17239841    -0.74600
O398        O  0.11218362  0.86322826  0.14353006    -0.74600
O399        O  0.14665955  0.88858341  0.17124668    -0.74600
O400        O  0.14774384  0.81120715  0.14511980    -0.74700
Ni401      Ni  0.11329879  0.82894874  0.17966745     1.25400
Ni402      Ni  0.14821108  0.85065367  0.15735772     1.25400
C403        C  0.13192560  0.78812508  0.15127470     0.87600
C404        C  0.13059301  0.89123555  0.18614512     0.87500
C405        C  0.08438739  0.85675104  0.14880213     0.87600
C406        C  0.17701915  0.82073617  0.18728923     0.87700
O407        O  0.89243020  0.84464728  0.05234798    -0.74600
O408        O  0.81256364  0.84287087  0.02827017    -0.74600
O409        O  0.86657685  0.87431977  0.02308502    -0.74700
O410        O  0.83880870  0.81310692  0.05734277    -0.74700
O411        O  0.82238161  0.85062454  0.07649289    -0.74600
O412        O  0.84917438  0.91212767  0.04162347    -0.74600
O413        O  0.79546486  0.88004205  0.04734862    -0.74600
O414        O  0.87537714  0.88293193  0.07074570    -0.74700
Ni415      Ni  0.85311961  0.84241947  0.03954295     1.25400
Ni416      Ni  0.83486203  0.88279320  0.05967810     1.25400
C417        C  0.89695987  0.86404493  0.06561145     0.87600
C418        C  0.79063504  0.86090059  0.03401536     0.87500
C419        C  0.86339995  0.90334862  0.02688911     0.87600
C420        C  0.82673550  0.82169926  0.07271985     0.87700
O421        O  0.05969993  0.58043837  0.04740868    -0.74600
O422        O  0.13713751  0.58702096  0.02137786    -0.74600
O423        O  0.08409641  0.55363588  0.01704467    -0.74700
O424        O  0.11208967  0.61405396  0.05160916    -0.74700
O425        O  0.13224574  0.57667071  0.06954789    -0.74600
O426        O  0.10407137  0.51560388  0.03453051    -0.74600
O427        O  0.15721600  0.54932304  0.03903133    -0.74600
O428        O  0.07997693  0.54255885  0.06493485    -0.74700
Ni429      Ni  0.09765417  0.58510611  0.03369534     1.25400
Ni430      Ni  0.11925861  0.54465602  0.05259673     1.25400
C431        C  0.05711488  0.56036850  0.06047740     0.87600
C432        C  0.16012175  0.56941861  0.02604234     0.87500
C433        C  0.08813432  0.52463715  0.02044001     0.87600
C434        C  0.12624167  0.60552815  0.06637294     0.87700
O435        O  0.85390771  0.63765578  0.17055481    -0.74600
O436        O  0.86334090  0.55948917  0.19556341    -0.74600
O437        O  0.88956297  0.58652044  0.16578480    -0.74700
O438        O  0.82710394  0.61149385  0.20045016    -0.74700
O439        O  0.79023429  0.59089693  0.18233944    -0.74600
O440        O  0.85297219  0.56601069  0.14752205    -0.74600
O441        O  0.82675291  0.53885138  0.17733919    -0.74600
O442        O  0.81672172  0.61699335  0.15264859    -0.74700
Ni443      Ni  0.85972609  0.59940796  0.18382733     1.25400
Ni444      Ni  0.82030723  0.57728555  0.16440453     1.25400
C445        C  0.83386162  0.64004464  0.15743432     0.87600
C446        C  0.84756994  0.53589975  0.18999630     0.87500
C447        C  0.88164010  0.57263790  0.15080267     0.87600
C448        C  0.79828314  0.60718226  0.19644114     0.87700
C449        C  0.02776000  0.55863372  0.07107199    -0.20000
C450        C  0.01834380  0.53083045  0.07999332     0.36200
C451        C  0.99201894  0.53141955  0.09156137    -0.26000
C452        C  0.97524213  0.55912198  0.09436638     0.02600
C453        C  0.98424012  0.58674093  0.08529346     0.27400
C454        C  0.01014287  0.58606259  0.07343391    -0.25100
N455        N  0.03573356  0.50231789  0.07751887    -0.82500
H456        H  0.98504857  0.51047696  0.09887737     0.13300
C457        C  0.95084381  0.55980275  0.10865193     0.02600
N458        N  0.96837653  0.61571813  0.08913291    -0.81100
H459        H  0.01758931  0.60746495  0.06679302     0.18100
C460        C  0.96014132  0.56301278  0.12712947    -0.25900
C461        C  0.93798397  0.56539700  0.14133228     0.36100
C462        C  0.90579247  0.56548335  0.13676907    -0.19900
C463        C  0.89663680  0.56069995  0.11824493    -0.25200
C464        C  0.91895939  0.55758210  0.10410919     0.27500
H465        H  0.98486473  0.56385676  0.13042515     0.13200
N466        N  0.94810959  0.56774951  0.16029794    -0.82500
H467        H  0.87203040  0.56019548  0.11468200     0.18100
N468        N  0.90946781  0.55165869  0.08530191    -0.81100
H469        H  0.97254306  0.56767888  0.16114159     0.33700
H470        H  0.94051591  0.54769525  0.16716923     0.38200
H471        H  0.88510941  0.54998722  0.08442712     0.33700
H472        H  0.91582068  0.57079223  0.07721679     0.30400
H473        H  0.97883591  0.63408997  0.08192422     0.33700
H474        H  0.94556507  0.61403988  0.08408424     0.30400
H475        H  0.03370374  0.49580529  0.06359252     0.38300
H476        H  0.02594293  0.48427128  0.08531723     0.33700
C477        C  0.82021176  0.79795132  0.08683940    -0.20000
C478        C  0.80853737  0.76809477  0.08217763     0.36200
C479        C  0.80778738  0.74480147  0.09566101    -0.26000
C480        C  0.81894500  0.75052804  0.11359272     0.02600
C481        C  0.82899837  0.78058757  0.11861293     0.27400
C482        C  0.82926714  0.80420359  0.10517591    -0.25100
N483        N  0.79730709  0.76073060  0.06396895    -0.82500
H484        H  0.79978572  0.72165017  0.09190948     0.13300
C485        C  0.82241054  0.72405077  0.12638687     0.02600
N486        N  0.83973492  0.78662762  0.13715327    -0.81100
H487        H  0.83820207  0.82706981  0.10877671     0.18100
C488        C  0.85257020  0.71312264  0.13048009    -0.25900
C489        C  0.85692931  0.68583061  0.14089599     0.36100
C490        C  0.83051226  0.66964657  0.14743771    -0.19900
C491        C  0.80037485  0.68097275  0.14361306    -0.25200
C492        C  0.79606787  0.70826538  0.13320711     0.27500
H493        H  0.87265740  0.72530197  0.12492257     0.13200
N494        N  0.88788713  0.67378563  0.14417881    -0.82500
H495        H  0.78020038  0.66839637  0.14868911     0.18100
N496        N  0.76517537  0.71988007  0.12931285    -0.81100
H497        H  0.90469016  0.68848615  0.13834593     0.33700
H498        H  0.88977189  0.65239901  0.13725531     0.38200
H499        H  0.74830448  0.70548629  0.13533163     0.33700
H500        H  0.76302432  0.74171422  0.13569399     0.30400
H501        H  0.84661393  0.80990084  0.13853547     0.33700
H502        H  0.82073479  0.78348411  0.14607640     0.30400
H503        H  0.78038102  0.77728076  0.06022517     0.38300
H504        H  0.81581440  0.76169570  0.05457975     0.33700
C505        C  0.92714223  0.86473942  0.07554658    -0.20000
C506        C  0.94367549  0.83707282  0.07992446     0.36200
C507        C  0.96983107  0.83877079  0.09165224    -0.26000
C508        C  0.97994824  0.86746367  0.09874803     0.02600
C509        C  0.96437327  0.89518563  0.09380467     0.27400
C510        C  0.93799663  0.89354812  0.08227667    -0.25100
N511        N  0.93298343  0.80727552  0.07332795    -0.82500
H512        H  0.98214719  0.81760272  0.09555749     0.13300
C513        C  0.00597575  0.86775951  0.11212457     0.02600
N514        N  0.97502299  0.92470561  0.10084836    -0.81100
H515        H  0.92543868  0.91479556  0.07882452     0.18100
C516        C  0.03548878  0.87786329  0.10643973    -0.25900
C517        C  0.06124455  0.87589562  0.11841707     0.36100
C518        C  0.05738197  0.86357206  0.13648286    -0.19900
C519        C  0.02723804  0.85495503  0.14233882    -0.25200
C520        C  0.00151873  0.85695998  0.13032901     0.27500
H521        H  0.03870987  0.88652147  0.09245743     0.13200
N522        N  0.09127231  0.88576489  0.11193454    -0.82500
H523        H  0.02374222  0.84580473  0.15617274     0.18100
N524        N  0.97094736  0.84752814  0.13637266    -0.81100
H525        H  0.08954783  0.90921856  0.10803862     0.33700
H526        H  0.09689446  0.87269387  0.10013948     0.38200
H527        H  0.97164426  0.83985268  0.15012536     0.33700
H528        H  0.95652575  0.86729590  0.13615010     0.30400
H529        H  0.96105917  0.94291056  0.09579102     0.33700
H530        H  0.97212554  0.92448427  0.11523452     0.30400
H531        H  0.93683187  0.80660925  0.05901712     0.38300
H532        H  0.94649314  0.78922619  0.07894657     0.33700
C533        C  0.13417020  0.62959824  0.08015369    -0.20000
C534        C  0.13962727  0.66071385  0.07458099     0.36200
C535        C  0.14161554  0.68412095  0.08803870    -0.26000
C536        C  0.13872541  0.67705081  0.10689325     0.02600
C537        C  0.13488052  0.64588031  0.11260024     0.27400
C538        C  0.13271097  0.62229613  0.09911503    -0.25100
N539        N  0.14262132  0.66850716  0.05526936    -0.82500
H540        H  0.14471207  0.70819190  0.08380736     0.13300
C541        C  0.13851688  0.70312624  0.12022210     0.02600
N542        N  0.13262454  0.63851247  0.13198514    -0.81100
H543        H  0.12849561  0.59842882  0.10338303     0.18100
C544        C  0.11101945  0.70988496  0.13003120    -0.25900
C545        C  0.10847688  0.73723850  0.14061284     0.36100
C546        C  0.13389057  0.75806680  0.14139679    -0.19900
C547        C  0.16174816  0.75061393  0.13207058    -0.25200
C548        C  0.16434749  0.72325710  0.12153710     0.27500
H549        H  0.09100932  0.69455770  0.12881566     0.13200
N550        N  0.07962279  0.74445407  0.14976648    -0.82500
H551        H  0.18150988  0.76632165  0.13288961     0.18100
N552        N  0.19283659  0.71604030  0.11183511    -0.81100
H553        H  0.06192411  0.74530801  0.13976363     0.33700
H554        H  0.07456486  0.72621596  0.15889362     0.38200
H555        H  0.20957437  0.73337928  0.11413567     0.33700
H556        H  0.20185821  0.69542320  0.11746988     0.30400
H557        H  0.12965662  0.61449002  0.13384162     0.33700
H558        H  0.15398222  0.64425419  0.13814030     0.30400
H559        H  0.14619591  0.69243437  0.05356964     0.38300
H560        H  0.16271845  0.65728390  0.05027101     0.33700
C561        C  0.77443903  0.62440082  0.20710843    -0.20000
C562        C  0.75168069  0.64255798  0.19776196     0.36200
C563        C  0.73465738  0.66508164  0.20767130    -0.26000
C564        C  0.73952398  0.66935002  0.22666835     0.02600
C565        C  0.76033243  0.64961559  0.23633020     0.27400
C566        C  0.77807116  0.62761549  0.22635266    -0.25100
N567        N  0.74752072  0.63968424  0.17805154    -0.82500
H568        H  0.71811185  0.68001966  0.20048307     0.13300
C569        C  0.72283278  0.69500732  0.23607598     0.02600
N570        N  0.76314985  0.65182415  0.25615821    -0.81100
H571        H  0.79542102  0.61355447  0.23348953     0.18100
C572        C  0.69153889  0.69079497  0.24096406    -0.25900
C573        C  0.67444390  0.71479505  0.24955796     0.36100
C574        C  0.68944782  0.74342595  0.25377505    -0.19900
C575        C  0.72066627  0.74777224  0.24832788    -0.25200
C576        C  0.73736783  0.72400446  0.23920731     0.27500
H577        H  0.68041962  0.66864606  0.23798777     0.13200
N578        N  0.64230534  0.70966102  0.25451056    -0.82500
H579        H  0.73208525  0.76979080  0.25121061     0.18100
N580        N  0.76861945  0.72948518  0.23263343    -0.81100
H581        H  0.63580107  0.68661701  0.25169111     0.33700
H582        H  0.62859210  0.72364835  0.24582765     0.38200
H583        H  0.77546649  0.75237328  0.23554793     0.33700
H584        H  0.78387026  0.71491535  0.23995510     0.30400
H585        H  0.77895159  0.63510393  0.26111954     0.33700
H586        H  0.77257304  0.67358791  0.25943351     0.30400
H587        H  0.73755590  0.61785834  0.17551230     0.38300
H588        H  0.73144310  0.65624965  0.17320402     0.33700
C589        C  0.50349397  0.87430643  0.40419517    -0.20000
C590        C  0.52546996  0.84955424  0.40263379     0.36200
C591        C  0.54770209  0.85016404  0.38833724    -0.26000
C592        C  0.54923120  0.87522854  0.37590656     0.02600
C593        C  0.52927886  0.90112449  0.37839595     0.27400
C594        C  0.50653199  0.90036940  0.39244459    -0.25100
N595        N  0.52462588  0.82334971  0.41507539    -0.82500
H596        H  0.56317237  0.83032237  0.38641032     0.13300
C597        C  0.56934268  0.87211359  0.35924711     0.02600
N598        N  0.53170708  0.92768107  0.36631674    -0.81100
H599        H  0.49044790  0.91984294  0.39376607     0.18100
C600        C  0.55517574  0.87268019  0.34171008    -0.25900
C601        C  0.57190280  0.86416637  0.32573825     0.36100
C602        C  0.60347725  0.85465566  0.32738211    -0.19900
C603        C  0.61824382  0.85635167  0.34476453    -0.25200
C604        C  0.60143779  0.86489592  0.36073839     0.27500
H605        H  0.53049992  0.87823823  0.34059877     0.13200
N606        N  0.55665702  0.86417793  0.30796355    -0.82500
H607        H  0.64245853  0.84916230  0.34610797     0.18100
N608        N  0.61646383  0.86515499  0.37856926    -0.81100
H609        H  0.53336943  0.87142750  0.30921306     0.33700
H610        H  0.56785410  0.88075748  0.29969845     0.38200
H611        H  0.64002742  0.85895245  0.37733461     0.33700
H612        H  0.61587972  0.88813397  0.38348888     0.30400
H613        H  0.51525873  0.94474538  0.36991787     0.33700
H614        H  0.55375666  0.93756606  0.36842500     0.30400
H615        H  0.53073516  0.83155142  0.42824471     0.38300
H616        H  0.54154505  0.80673053  0.41148154     0.33700
C617        C  0.64706342  0.73587199  0.32589279    -0.20000
C618        C  0.67482517  0.72125241  0.33221183     0.36200
C619        C  0.67323383  0.69968470  0.34686220    -0.26000
C620        C  0.64456187  0.69278584  0.35520589     0.02600
C621        C  0.61687072  0.70697954  0.34876050     0.27400
C622        C  0.61836484  0.72824375  0.33406451    -0.25100
N623        N  0.70439678  0.72829909  0.32374807    -0.82500
H624        H  0.69432521  0.68845014  0.35191577     0.13300
C625        C  0.64320649  0.67100532  0.37094976     0.02600
N626        N  0.58745225  0.70016647  0.35749247    -0.81100
H627        H  0.59713061  0.73963237  0.32934698     0.18100
C628        C  0.64017465  0.68329675  0.38883388    -0.25900
C629        C  0.63156941  0.66415474  0.40373629     0.36100
C630        C  0.62551210  0.63216037  0.40049102    -0.19900
C631        C  0.63164145  0.61946206  0.38286244    -0.25200
C632        C  0.64018488  0.63870777  0.36797619     0.27500
H633        H  0.64296065  0.70819394  0.39094589     0.13200
N634        N  0.62786855  0.67730945  0.42195077    -0.82500
H635        H  0.62749704  0.59489220  0.38030944     0.18100
N636        N  0.64429859  0.62590688  0.34969902    -0.81100
H637        H  0.64449891  0.66675977  0.43056492     0.33700
H638        H  0.63286907  0.70119073  0.42185570     0.38200
H639        H  0.64143219  0.60165153  0.34989721     0.33700
H640        H  0.62653653  0.63484822  0.34126371     0.30400
H641        H  0.56938068  0.71303750  0.35135583     0.33700
H642        H  0.58248747  0.67663291  0.35507781     0.30400
H643        H  0.70343742  0.72061698  0.30998237     0.38300
H644        H  0.72242625  0.71576609  0.33013438     0.33700
C645        C  0.30516847  0.70596088  0.24560881    -0.20000
C646        C  0.31632477  0.73633371  0.24182755     0.36200
C647        C  0.29756493  0.75693951  0.23158152    -0.26000
C648        C  0.26815022  0.74763647  0.22526761     0.02600
C649        C  0.25750852  0.71702407  0.22838592     0.27400
C650        C  0.27612719  0.69645020  0.23869086    -0.25100
N651        N  0.34597141  0.74651320  0.24901837    -0.82500
H652        H  0.30541147  0.78056162  0.22896155     0.13300
C653        C  0.24790012  0.77040966  0.21598723     0.02600
N654        N  0.22789629  0.70705189  0.22104471    -0.81100
H655        H  0.26786106  0.67304070  0.24151230     0.18100
C656        C  0.24949084  0.77315859  0.19671650    -0.25900
C657        C  0.22740679  0.79109203  0.18714409     0.36100
C658        C  0.20347336  0.80644393  0.19708180    -0.19900
C659        C  0.20292952  0.80492118  0.21649131    -0.25200
C660        C  0.22519412  0.78712075  0.22611028     0.27500
H661        H  0.26707009  0.76022669  0.18903950     0.13200
N662        N  0.22816444  0.79200391  0.16729316    -0.82500
H663        H  0.18461132  0.81692553  0.22408248     0.18100
N664        N  0.22464438  0.78554055  0.24602718    -0.81100
H665        H  0.24984375  0.80086882  0.16323885     0.33700
H666        H  0.22646975  0.76910905  0.16234234     0.38200
H667        H  0.20673994  0.79962670  0.25132518     0.33700
H668        H  0.21930664  0.76262439  0.24982110     0.30400
H669        H  0.22390263  0.68361683  0.22425231     0.33700
H670        H  0.21029633  0.71988335  0.22766275     0.30400
H671        H  0.34422212  0.74708761  0.26346593     0.38300
H672        H  0.35072023  0.76936852  0.24478591     0.33700
C673        C  0.40271034  0.60881725  0.32063168    -0.20000
C674        C  0.43502450  0.60274557  0.31830016     0.36200
C675        C  0.45353434  0.59632303  0.33387630    -0.26000
C676        C  0.44040403  0.59478200  0.35162885     0.02600
C677        C  0.40784162  0.59818312  0.35382837     0.27400
C678        C  0.38926813  0.60529538  0.33829554    -0.25100
N679        N  0.44911393  0.60378233  0.30021281    -0.82500
H680        H  0.47855738  0.59332082  0.33224178     0.13300
C681        C  0.46152381  0.59102228  0.36775402     0.02600
N682        N  0.39395870  0.59504215  0.37186836    -0.81100
H683        H  0.36447349  0.60948555  0.34017481     0.18100
C684        C  0.46274164  0.61460271  0.38123211    -0.25900
C685        C  0.48487211  0.61361465  0.39566636     0.36100
C686        C  0.50588370  0.58798102  0.39681217    -0.19900
C687        C  0.50398467  0.56416121  0.38337919    -0.25200
C688        C  0.48216322  0.56546011  0.36890172     0.27500
H689        H  0.44710062  0.63448052  0.38005486     0.13200
N690        N  0.48629138  0.63882854  0.40881011    -0.82500
H691        H  0.51979455  0.54437536  0.38400642     0.18100
N692        N  0.48102228  0.54103866  0.35522265    -0.81100
H693        H  0.46827600  0.65490910  0.40643944     0.33700
H694        H  0.50717497  0.65081374  0.40644116     0.38200
H695        H  0.49800656  0.52402236  0.35790506     0.33700
H696        H  0.45929989  0.53008298  0.35640614     0.30400
H697        H  0.36976794  0.59831872  0.37113267     0.33700
H698        H  0.39761249  0.57201305  0.37622616     0.30400
H699        H  0.43934553  0.58574016  0.29235271     0.38300
H700        H  0.47310089  0.59920534  0.30100282     0.33700
C701        C  0.35777323  0.72815935  0.31444484    -0.20000
C702        C  0.38260049  0.74990210  0.31363993     0.36200
C703        C  0.38620090  0.77153895  0.32809510    -0.26000
C704        C  0.36521389  0.77227159  0.34295429     0.02600
C705        C  0.33905684  0.75259082  0.34305052     0.27400
C706        C  0.33543194  0.73086189  0.32870936    -0.25100
N707        N  0.40458899  0.74941757  0.29857649    -0.82500
H708        H  0.40618105  0.78703176  0.32822277     0.13300
C709        C  0.37373492  0.78980998  0.35968181     0.02600
N710        N  0.31707508  0.75388725  0.35812106    -0.81100
H711        H  0.31587523  0.71490308  0.32928681     0.18100
C712        C  0.36082039  0.81934061  0.36302676    -0.25900
C713        C  0.36913367  0.83637768  0.37896014     0.36100
C714        C  0.39028585  0.82295998  0.39186601    -0.19900
C715        C  0.40270928  0.79307482  0.38834712    -0.25200
C716        C  0.39468144  0.77642914  0.37241816     0.27500
H717        H  0.34458436  0.82919841  0.35306249     0.13200
N718        N  0.35595920  0.86687511  0.38203596    -0.82500
H719        H  0.41921828  0.78264646  0.39793402     0.18100
N720        N  0.40790331  0.74601390  0.36898419    -0.81100
H721        H  0.33899425  0.87192203  0.37200667     0.33700
H722        H  0.37379881  0.88311847  0.38002100     0.38200
H723        H  0.42343368  0.73974157  0.37955700     0.33700
H724        H  0.38968302  0.72982024  0.36937242     0.30400
H725        H  0.29889588  0.73799755  0.35598627     0.33700
H726        H  0.32867952  0.74672332  0.37014576     0.30400
H727        H  0.39239968  0.75566092  0.28654538     0.38300
H728        H  0.42180418  0.76636786  0.30047315     0.33700
C729        C  0.87887625  0.92643728  0.01473641    -0.20000
C730        C  0.88466313  0.95740412  0.02064397     0.36200
C731        C  0.90702866  0.97524547  0.01122583    -0.26000
C732        C  0.92248941  0.96334605  0.99560219     0.02600
C733        C  0.91393492  0.93401208  0.98841740     0.27400
C734        C  0.89243596  0.91574472  0.99814012    -0.25100
N735        N  0.86900537  0.97019673  0.03657711    -0.82500
H736        H  0.91326130  0.99808620  0.01649652     0.13300
C737        C  0.94862805  0.98101541  0.98735953     0.02600
N738        N  0.92785744  0.92256693  0.97157091    -0.81100
H739        H  0.88733795  0.89246828  0.99311283     0.18100
C740        C  0.97770968  0.96610076  0.98515302    -0.25900
C741        C  0.00263084  0.98117341  0.97632941     0.36100
C742        C  0.99839060  0.01195816  0.96989441    -0.19900
C743        C  0.96990867  0.02748751  0.97314406    -0.25200
C744        C  0.94480560  0.01219563  0.98158729     0.27500
H745        H  0.98078640  0.94241419  0.99012856     0.13200
N746        N  0.03203544  0.96533993  0.97381107    -0.82500
H747        H  0.96661597  0.05115522  0.96819034     0.18100
N748        N  0.91520351  0.02782594  0.98374731    -0.81100
H749        H  0.03108771  0.94270989  0.97921218     0.33700
H750        H  0.04882586  0.97735342  0.98154204     0.38200
H751        H  0.91639745  0.05075303  0.97883861     0.33700
H752        H  0.89892592  0.01622061  0.97542969     0.30400
H753        H  0.91926435  0.90042270  0.96826731     0.33700
H754        H  0.92094134  0.93748418  0.96084815     0.30400
H755        H  0.84525357  0.97209316  0.03323872     0.38300
H756        H  0.87670814  0.99287330  0.03928136     0.33700
C757        C  0.89198855  0.08862326  0.81958237    -0.20000
C758        C  0.87675592  0.08212662  0.83655081     0.36200
C759        C  0.89468760  0.07267717  0.85197337    -0.26000
C760        C  0.92725418  0.06918789  0.85066801     0.02600
C761        C  0.94209922  0.07344227  0.83345292     0.27400
C762        C  0.92430476  0.08277552  0.81810006    -0.25100
N763        N  0.84357570  0.08654931  0.83838719    -0.82500
H764        H  0.88342401  0.06895374  0.86523582     0.13300
C765        C  0.94614082  0.06384301  0.86761669     0.02600
N766        N  0.97543083  0.06966135  0.83183097    -0.81100
H767        H  0.93615258  0.08700898  0.80507640     0.18100
C768        C  0.96421946  0.03664385  0.86917952    -0.25900
C769        C  0.98532862  0.03254227  0.88394924     0.36100
C770        C  0.98875654  0.05658355  0.89736642    -0.19900
C771        C  0.96942763  0.08317940  0.89610888    -0.25200
C772        C  0.94836961  0.08713812  0.88133938     0.27500
H773        H  0.96224158  0.01880434  0.85858081     0.13200
N774        N  0.00358870  0.00433871  0.88505113    -0.82500
H775        H  0.97150594  0.10162782  0.90630935     0.18100
N776        N  0.93004236  0.11525685  0.87983877    -0.81100
H777        H  0.99909918  0.98981492  0.87369020     0.33700
H778        H  0.99614947  0.99216806  0.89678487     0.38200
H779        H  0.93426482  0.13003676  0.89112361     0.33700
H780        H  0.93751433  0.12717668  0.86802739     0.30400
H781        H  0.98268408  0.07350219  0.81818866     0.33700
H782        H  0.98596789  0.08695515  0.83992514     0.30400
H783        H  0.83270615  0.06975991  0.83009332     0.38300
H784        H  0.83644135  0.08207322  0.85199269     0.33700
C785        C  0.95683700  0.40655478  0.96619806    -0.20000
C786        C  0.98748935  0.39493693  0.96879025     0.36200
C787        C  0.00957715  0.41350886  0.97784196    -0.26000
C788        C  0.00177825  0.44347498  0.98403562     0.02600
C789        C  0.97112375  0.45505292  0.98168776     0.27400
C790        C  0.94889733  0.43646528  0.97262916    -0.25100
N791        N  0.99651549  0.36500971  0.96141686    -0.82500
H792        H  0.03332498  0.40503980  0.97955156     0.13300
C793        C  0.02636377  0.46268900  0.99254344     0.02600
N794        N  0.96288165  0.48562471  0.98839096    -0.81100
H795        H  0.92543489  0.44538190  0.97041777     0.18100
C796        C  0.03542863  0.49034867  0.98378328    -0.25900
C797        C  0.05776682  0.50984383  0.99187047     0.36100
C798        C  0.07117672  0.50157875  0.00909450    -0.19900
C799        C  0.06357322  0.47274676  0.01715686    -0.25200
C800        C  0.04102232  0.45332259  0.00911958     0.27500
H801        H  0.02473662  0.49705386  0.97074106     0.13200
N802        N  0.06634987  0.53819689  0.98268338    -0.82500
H803        H  0.07365218  0.46623105  0.03038979     0.18100
N804        N  0.03208432  0.42470179  0.01803502    -0.81100
H805        H  0.07496344  0.53246196  0.96956519     0.33700
H806        H  0.04612823  0.55172909  0.98090618     0.38200
H807        H  0.04515492  0.42117939  0.03011398     0.33700
H808        H  0.00875016  0.42703531  0.02214625     0.30400
H809        H  0.93943117  0.49064216  0.98546932     0.33700
H810        H  0.96501206  0.48532687  0.00282636     0.30400
H811        H  0.99542525  0.36649414  0.94697059     0.38300
H812        H  0.01981184  0.35990902  0.96472423     0.33700
C813        C  0.84774143  0.20958694  0.81431701    -0.20000
C814        C  0.81931147  0.22349982  0.82027368     0.36200
C815        C  0.81991909  0.24568053  0.83463564    -0.26000
C816        C  0.84810959  0.25374292  0.84316035     0.02600
C817        C  0.87646588  0.24084282  0.83686105     0.27400
C818        C  0.87602747  0.21905802  0.82239575    -0.25100
N819        N  0.79004976  0.21536941  0.81174198    -0.82500
H820        H  0.79830259  0.25595896  0.83962428     0.13300
C821        C  0.84791767  0.27388486  0.85964793     0.02600
N822        N  0.90544451  0.24909738  0.84570109    -0.81100
H823        H  0.89782592  0.20850494  0.81792265     0.18100
C824        C  0.84789846  0.25968434  0.87710687    -0.25900
C825        C  0.85376212  0.27715243  0.89316746     0.36100
C826        C  0.86008903  0.30940850  0.89154038    -0.19900
C827        C  0.85731267  0.32393769  0.87412338    -0.25200
C828        C  0.85154343  0.30636006  0.85808504     0.27500
H829        H  0.84466897  0.23464599  0.87807658     0.13200
N830        N  0.85427205  0.26209179  0.91097349    -0.82500
H831        H  0.86173861  0.34872241  0.87278685     0.18100
N832        N  0.85047338  0.32110021  0.84019060    -0.81100
H833        H  0.84954273  0.23825759  0.90963931     0.33700
H834        H  0.83608869  0.27166310  0.91885151     0.38200
H835        H  0.85333442  0.34523403  0.84149367     0.33700
H836        H  0.86952870  0.31293604  0.83248772     0.30400
H837        H  0.92413955  0.23697270  0.83969562     0.33700
H838        H  0.90939506  0.27279231  0.84320601     0.30400
H839        H  0.78398005  0.19314677  0.81646260     0.38300
H840        H  0.77224281  0.23029766  0.81632466     0.33700
C841        C  0.09538570  0.33138115  0.83054483    -0.20000
C842        C  0.06828997  0.34947269  0.82740559     0.36200
C843        C  0.04891773  0.35738731  0.84242391    -0.26000
C844        C  0.05616594  0.34762033  0.86050493     0.02600
C845        C  0.08455273  0.33160750  0.86381434     0.27400
C846        C  0.10398977  0.32377147  0.84877531    -0.25100
N847        N  0.06005739  0.35878866  0.80888872    -0.82500
H848        H  0.02715819  0.36969883  0.83986248     0.13300
C849        C  0.03195148  0.35082089  0.87518249     0.02600
N850        N  0.09282238  0.32228045  0.88232525    -0.81100
H851        H  0.12481981  0.30984530  0.85116758     0.18100
C852        C  0.02099769  0.32374041  0.88390518    -0.25900
C853        C  0.99525002  0.32465627  0.89596044     0.36100
C854        C  0.97999473  0.35348829  0.89944239    -0.19900
C855        C  0.99164970  0.38076883  0.89113680    -0.25200
C856        C  0.01758162  0.37975051  0.87915018     0.27500
H857        H  0.03175106  0.30145584  0.88062728     0.13200
N858        N  0.98399179  0.29618100  0.90408935    -0.82500
H859        H  0.98045735  0.40300317  0.89397059     0.18100
N860        N  0.02926202  0.40789484  0.87086537    -0.81100
H861        H  0.99838942  0.27732142  0.90051127     0.33700
H862        H  0.96204160  0.29158695  0.89833293     0.38200
H863        H  0.01608199  0.42719600  0.87515257     0.33700
H864        H  0.05198073  0.41130745  0.87582563     0.30400
H865        H  0.11417832  0.31033672  0.88236832     0.33700
H866        H  0.09605274  0.34260938  0.89013227     0.30400
H867        H  0.07765144  0.37362008  0.80410443     0.38300
H868        H  0.03935400  0.37186878  0.80893470     0.33700
C869        C  0.13105004  0.21019487  0.82600130    -0.20000
C870        C  0.10187513  0.20157019  0.83362212     0.36200
C871        C  0.10097441  0.17865663  0.84746174    -0.26000
C872        C  0.12838773  0.16411232  0.85367919     0.02600
C873        C  0.15739240  0.17205330  0.84593597     0.27400
C874        C  0.15847349  0.19512660  0.83214172    -0.25100
N875        N  0.07349192  0.21702515  0.82801040    -0.82500
H876        H  0.07881326  0.17237081  0.85369208     0.13300
C877        C  0.12594578  0.14202579  0.86917832     0.02600
N878        N  0.18548653  0.15677156  0.85216076    -0.81100
H879        H  0.18085405  0.20160354  0.82628789     0.18100
C880        C  0.12030287  0.11046000  0.86546957    -0.25900
C881        C  0.11084524  0.09016614  0.87968438     0.36100
C882        C  0.10767922  0.10191042  0.89793206    -0.19900
C883        C  0.11579013  0.13303652  0.90169819    -0.25200
C884        C  0.12457420  0.15331458  0.88745072     0.27500
H885        H  0.12123459  0.10221745  0.85126992     0.13200
N886        N  0.10248038  0.05848556  0.87538270    -0.82500
H887        H  0.11359254  0.14205729  0.91568092     0.18100
N888        N  0.13016397  0.18579744  0.89122809    -0.81100
H889        H  0.10689488  0.05356158  0.86141692     0.33700
H890        H  0.07832239  0.05642394  0.87717928     0.38200
H891        H  0.12730921  0.19055411  0.90533944     0.33700
H892        H  0.15357255  0.19037869  0.88811381     0.30400
H893        H  0.20487510  0.16514605  0.84490006     0.33700
H894        H  0.18893743  0.16273799  0.86605915     0.30400
H895        H  0.06830946  0.20952321  0.81455796     0.38300
H896        H  0.05473591  0.20989993  0.83624220     0.33700
C897        C  0.58808818  0.00518677  0.51957102    -0.20000
C898        C  0.58193221  0.00729796  0.50040933     0.36200
C899        C  0.55965833  0.98742903  0.49249947    -0.26000
C900        C  0.54371300  0.96568727  0.50343081     0.02600
C901        C  0.55089713  0.96248694  0.52235275     0.27400
C902        C  0.57335922  0.98215309  0.53025005    -0.25100
N903        N  0.59791201  0.02993342  0.48920468    -0.82500
H904        H  0.55424211  0.98920787  0.47785510     0.13300
C905        C  0.51915573  0.94670650  0.49483873     0.02600
N906        N  0.53456486  0.94005879  0.53352527    -0.81100
H907        H  0.57788137  0.98084049  0.54501637     0.18100
C908        C  0.52490908  0.91504134  0.49170211    -0.25900
C909        C  0.50318893  0.89663892  0.48216809     0.36100
C910        C  0.47511007  0.91053943  0.47562761    -0.19900
C911        C  0.46891273  0.94207965  0.47963917    -0.25200
C912        C  0.49073029  0.96032640  0.48921594     0.27500
H913        H  0.54689731  0.90493108  0.49623851     0.13200
N914        N  0.51050286  0.86450343  0.47822918    -0.82500
H915        H  0.44743647  0.95280262  0.47476884     0.18100
N916        N  0.48459720  0.99278722  0.49287430    -0.81100
H917        H  0.53312072  0.85890312  0.48272419     0.33700
H918        H  0.49535559  0.85078653  0.48609021     0.38200
H919        H  0.46269578  0.99929092  0.48765294     0.33700
H920        H  0.48350065  0.99563377  0.50725163     0.30400
H921        H  0.54261077  0.94072751  0.54721159     0.33700
H922        H  0.51100967  0.94667772  0.53388547     0.30400
H923        H  0.62170416  0.02422252  0.48936258     0.38300
H924        H  0.59059798  0.02843664  0.47539519     0.33700
C925        C  0.26541424  0.11775677  0.69931515    -0.20000
C926        C  0.26251541  0.11462330  0.71866418     0.36200
C927        C  0.24195108  0.13442310  0.72832123    -0.26000
C928        C  0.22473699  0.15751153  0.71896791     0.02600
C929        C  0.22627791  0.15940673  0.69949078     0.27400
C930        C  0.24621312  0.13899261  0.68980460    -0.25100
N931        N  0.28116735  0.09197896  0.72841511    -0.82500
H932        H  0.24046647  0.13290822  0.74329141     0.13300
C933        C  0.20712284  0.18084405  0.72997528     0.02600
N934        N  0.20853146  0.18279692  0.68975860    -0.81100
H935        H  0.24831307  0.14105176  0.67491773     0.18100
C936        C  0.21662683  0.21218829  0.72963365    -0.25900
C937        C  0.20277254  0.23443353  0.74141733     0.36100
C938        C  0.17876301  0.22501916  0.75353762    -0.19900
C939        C  0.16841307  0.19398499  0.75331551    -0.25200
C940        C  0.18251608  0.17170718  0.74171238     0.27500
H941        H  0.23552261  0.21906950  0.72052513     0.13200
N942        N  0.21240078  0.26654932  0.74078597    -0.82500
H943        H  0.14976089  0.18697799  0.76257167     0.18100
N944        N  0.17226303  0.13978599  0.74190817    -0.81100
H945        H  0.22911017  0.26981121  0.73039853     0.33700
H946        H  0.22351828  0.27168918  0.75331909     0.38200
H947        H  0.15407587  0.13685309  0.75142257     0.33700
H948        H  0.16303481  0.13478886  0.72881762     0.30400
H949        H  0.21273652  0.18143064  0.67550681     0.33700
H950        H  0.18483375  0.17785680  0.69170648     0.30400
H951        H  0.27445943  0.06989238  0.72376502     0.38300
H952        H  0.27631178  0.09271240  0.74263308     0.33700
C953        C  0.41550722  0.07206509  0.63875655    -0.20000
C954        C  0.41744265  0.04904842  0.62476741     0.36200
C955        C  0.44318038  0.04897844  0.61258064    -0.26000
C956        C  0.46717920  0.07111732  0.61430601     0.02600
C957        C  0.46572819  0.09339246  0.62869150     0.27400
C958        C  0.43991687  0.09369885  0.64067757    -0.25100
N959        N  0.39349211  0.02576799  0.62306862    -0.82500
H960        H  0.44449483  0.03170549  0.60162292     0.13300
C961        C  0.49401569  0.07070541  0.60119502     0.02600
N962        N  0.49051389  0.11565059  0.63105768    -0.81100
H963        H  0.43857160  0.11144804  0.65136629     0.18100
C964        C  0.50093028  0.09766383  0.59092894    -0.25900
C965        C  0.52772351  0.09924127  0.57965450     0.36100
C966        C  0.54775329  0.07298239  0.57834549    -0.19900
C967        C  0.54015121  0.04569158  0.58816621    -0.25200
C968        C  0.51361576  0.04430494  0.59960811     0.27500
H969        H  0.48569091  0.11784946  0.59209750     0.13200
N970        N  0.53505593  0.12767576  0.57003867    -0.82500
H971        H  0.55522297  0.02537306  0.58708308     0.18100
N972        N  0.50687961  0.01642796  0.60993234    -0.81100
H973        H  0.51772220  0.14455239  0.57232284     0.33700
H974        H  0.55564629  0.13650188  0.57579770     0.38200
H975        H  0.52345092  0.99902320  0.60710038     0.33700
H976        H  0.50901645  0.02178614  0.62400522     0.30400
H977        H  0.48575530  0.13061383  0.64216585     0.33700
H978        H  0.51077905  0.10322514  0.63455373     0.30400
H979        H  0.39396715  0.01227799  0.63515229     0.38300
H980        H  0.39845543  0.01060026  0.61209014     0.33700
C981        C  0.51570872  0.52973017  0.46699623    -0.20000
C982        C  0.52224649  0.49880943  0.47269186     0.36200
C983        C  0.49952606  0.48219227  0.48263414    -0.26000
C984        C  0.47028486  0.49550457  0.48667529     0.02600
C985        C  0.46384992  0.52642728  0.48123428     0.27400
C986        C  0.48676588  0.54335130  0.47162812    -0.25100
N987        N  0.55208603  0.48462797  0.46884371    -0.82500
H988        H  0.50447462  0.45853176  0.48711718     0.13300
C989        C  0.44666729  0.47641826  0.49646455     0.02600
N990        N  0.43389154  0.54025240  0.48517710    -0.81100
H991        H  0.48161987  0.56700975  0.46722948     0.18100
C992        C  0.43562626  0.48597530  0.51387749    -0.25900
C993        C  0.41567859  0.46679553  0.52434447     0.36100
C994        C  0.40714069  0.43717847  0.51728067    -0.19900
C995        C  0.41681673  0.42863969  0.49934738    -0.25200
C996        C  0.43632389  0.44799597  0.48884933     0.27500
H997        H  0.44346907  0.50802296  0.51957016     0.13200
N998        N  0.40557782  0.47663766  0.54243875    -0.82500
H999        H  0.40989410  0.40626669  0.49368018     0.18100
N1000       N  0.44627824  0.43864225  0.47062680    -0.81100
H1001       H  0.41545004  0.49818322  0.54590043     0.33700
H1002       H  0.38144085  0.48036757  0.54175501     0.38200
H1003       H  0.43680948  0.41696898  0.46710629     0.33700
H1004       H  0.43716084  0.45482578  0.46118993     0.30400
H1005       H  0.43291912  0.56320249  0.48026079     0.33700
H1006       H  0.41703932  0.52769578  0.47781236     0.30400
H1007       H  0.55274934  0.47948922  0.45469521     0.38300
H1008       H  0.55410950  0.46314929  0.47565174     0.33700
C1009       C  0.33765075  0.17178157  0.64533100    -0.20000
C1010       C  0.31033509  0.18314887  0.63662985     0.36200
C1011       C  0.31205090  0.20996540  0.62557793    -0.26000
C1012       C  0.34044824  0.22554448  0.62318018     0.02600
C1013       C  0.36758856  0.21482051  0.63229708     0.27400
C1014       C  0.36582426  0.18814692  0.64352699    -0.25100
N1015       N  0.28099363  0.16750673  0.63914593    -0.82500
H1016       H  0.29129733  0.21860430  0.61860230     0.13300
C1017       C  0.34173260  0.25207175  0.61023324     0.02600
N1018       N  0.39692572  0.23045527  0.62960510    -0.81100
H1019       H  0.38679749  0.17921028  0.65013246     0.18100
C1020       C  0.34686148  0.28218775  0.61712481    -0.25900
C1021       C  0.34980036  0.30769515  0.60503516     0.36100
C1022       C  0.34719691  0.30274641  0.58571250    -0.19900
C1023       C  0.34131602  0.27258587  0.57894877    -0.25200
C1024       C  0.33860891  0.24715203  0.59103026     0.27500
H1025       H  0.34925713  0.28560044  0.63194587     0.13200
N1026       N  0.35664610  0.33820904  0.61227544    -0.82500
H1027       H  0.33950939  0.26875182  0.56413360     0.18100
N1028       N  0.33333624  0.21623640  0.58390913    -0.81100
H1029       H  0.35735244  0.33779526  0.62673599     0.33700
H1030       H  0.37917081  0.34418481  0.60785112     0.38200
H1031       H  0.33140829  0.21665875  0.56944170     0.33700
H1032       H  0.35305801  0.20274901  0.58700281     0.30400
H1033       H  0.41459049  0.21957948  0.63728751     0.33700
H1034       H  0.40306109  0.22796526  0.61563730     0.30400
H1035       H  0.27499120  0.16998337  0.65311004     0.38300
H1036       H  0.26333093  0.17857653  0.63155693     0.33700
C1037       C  0.73414080  0.31672337  0.69492100    -0.20000
C1038       C  0.74059388  0.31764479  0.71399737     0.36200
C1039       C  0.76124697  0.29575951  0.72167008    -0.26000
C1040       C  0.77490304  0.27261454  0.71052364     0.02600
C1041       C  0.77039305  0.27310289  0.69119431     0.27400
C1042       C  0.75015735  0.29550655  0.68349035    -0.25100
N1043       N  0.72529713  0.34006906  0.72564761    -0.82500
H1044       H  0.76506535  0.29557175  0.73652700     0.13300
C1045       C  0.79058288  0.24607031  0.71963088     0.02600
N1046       N  0.78513570  0.24991529  0.67969696    -0.81100
H1047       H  0.74494993  0.29479969  0.66878355     0.18100
C1048       C  0.77486114  0.21742300  0.72065876    -0.25900
C1049       C  0.78701848  0.19259454  0.73119334     0.36100
C1050       C  0.81554265  0.19666119  0.74068171    -0.19900
C1051       C  0.83174909  0.22505106  0.73898724    -0.25200
C1052       C  0.81941252  0.24989182  0.72864621     0.27500
H1053       H  0.75257425  0.21482931  0.71366802     0.13200
N1054       N  0.77049658  0.16351126  0.73238967    -0.82500
H1055       H  0.85359341  0.22831570  0.74635188     0.18100
N1056       N  0.83555137  0.27922085  0.72761271    -0.81100
H1057       H  0.78447578  0.14636367  0.72625042     0.33700
H1058       H  0.74976866  0.16452475  0.72465331     0.38200
H1059       H  0.85635619  0.27832272  0.73524572     0.33700
H1060       H  0.84187873  0.28273096  0.71378696     0.30400
H1061       H  0.77903918  0.25327467  0.66578754     0.33700
H1062       H  0.80928175  0.25324184  0.68060866     0.30400
H1063       H  0.71288637  0.32798553  0.73581756     0.38300
H1064       H  0.74254407  0.35329581  0.73226593     0.33700
C1065       C  0.57871391  0.37468503  0.64395809    -0.20000
C1066       C  0.57861199  0.39506843  0.62850513     0.36200
C1067       C  0.55245874  0.39584971  0.61671878    -0.26000
C1068       C  0.52644139  0.37705363  0.62016534     0.02600
C1069       C  0.52564114  0.35803340  0.63602833     0.27400
C1070       C  0.55178170  0.35701107  0.64778609    -0.25100
N1071       N  0.60511217  0.41454705  0.62463525    -0.82500
H1072       H  0.55251239  0.41076509  0.60459032     0.13300
C1073       C  0.50036363  0.37698747  0.60678620     0.02600
N1074       N  0.49855809  0.33932075  0.63984828    -0.81100
H1075       H  0.55147094  0.34140638  0.65959371     0.18100
C1076       C  0.49786553  0.35229554  0.59415410    -0.25900
C1077       C  0.47284657  0.35082221  0.58153765     0.36100
C1078       C  0.45002007  0.37491987  0.58150819    -0.19900
C1079       C  0.45318997  0.39995308  0.59404599    -0.25200
C1080       C  0.47804442  0.40111465  0.60673124     0.27500
H1081       H  0.51530007  0.33385751  0.59437392     0.13200
N1082       N  0.47034440  0.32464239  0.56913866    -0.82500
H1083       H  0.43599158  0.41858950  0.59414345     0.18100
N1084       N  0.48064866  0.42654335  0.61966079    -0.81100
H1085       H  0.48965333  0.30977174  0.57053698     0.33700
H1086       H  0.45082206  0.31171653  0.57319890     0.38200
H1087       H  0.46244559  0.44255431  0.61774186     0.33700
H1088       H  0.47794335  0.41737226  0.63300475     0.30400
H1089       H  0.50180263  0.32637110  0.65195541     0.33700
H1090       H  0.47982620  0.35456364  0.64237920     0.30400
H1091       H  0.60707316  0.43058264  0.63553870     0.38300
H1092       H  0.60141224  0.42760011  0.61261212     0.33700
C1093       C  0.65717513  0.27337186  0.64178689    -0.20000
C1094       C  0.63090872  0.25359130  0.64075997     0.36200
C1095       C  0.63255965  0.22658576  0.62977565    -0.26000
C1096       C  0.65975475  0.21938557  0.61977056     0.02600
C1097       C  0.68603361  0.23894033  0.62096482     0.27400
C1098       C  0.68443416  0.26587092  0.63192074    -0.25100
N1099       N  0.60247293  0.26149364  0.65034524    -0.82500
H1100       H  0.61231823  0.21157141  0.62854152     0.13300
C1101       C  0.65974728  0.19237137  0.60713439     0.02600
N1102       N  0.71412967  0.23135228  0.61096356    -0.81100
H1103       H  0.70463741  0.28099063  0.63287662     0.18100
C1104       C  0.66343310  0.19764869  0.58810048    -0.25900
C1105       C  0.66171113  0.17297307  0.57540827     0.36100
C1106       C  0.65576815  0.14254305  0.58197230    -0.19900
C1107       C  0.65347453  0.13711153  0.60111864    -0.25200
C1108       C  0.65533100  0.16184148  0.61380556     0.27500
H1109       H  0.66701084  0.22124396  0.58313283     0.13200
N1110       N  0.66555763  0.17873403  0.55590768    -0.82500
H1111       H  0.64879781  0.11375853  0.60615101     0.18100
N1112       N  0.65216627  0.15626228  0.63336349    -0.81100
H1113       H  0.66954076  0.20243296  0.55343763     0.33700
H1114       H  0.68569277  0.16681684  0.55161730     0.38200
H1115       H  0.64876591  0.13250264  0.63595149     0.33700
H1116       H  0.67334121  0.16228770  0.63965375     0.30400
H1117       H  0.73126658  0.24824899  0.61324988     0.33700
H1118       H  0.72286141  0.21039069  0.61635819     0.30400
H1119       H  0.59379961  0.28214396  0.64454339     0.38300
H1120       H  0.58544868  0.24441129  0.64811320     0.33700
C1121       C  0.70850236  0.07257894  0.51961603    -0.20000
C1122       C  0.73775408  0.06720164  0.52827036     0.36200
C1123       C  0.76504556  0.06567505  0.51739215    -0.26000
C1124       C  0.76370905  0.06961892  0.49813212     0.02600
C1125       C  0.73478058  0.07580085  0.48952136     0.27400
C1126       C  0.70745628  0.07728863  0.50034264    -0.25100
N1127       N  0.73971397  0.06365404  0.54805667    -0.82500
H1128       H  0.78746268  0.06123407  0.52391291     0.13300
C1129       C  0.79268483  0.06661935  0.48699679     0.02600
N1130       N  0.73330899  0.08015795  0.46978226    -0.81100
H1131       H  0.68515544  0.08152563  0.49364277     0.18100
C1132       C  0.79860256  0.03866853  0.47752077    -0.25900
C1133       C  0.82539434  0.03502458  0.46639031     0.36100
C1134       C  0.84647448  0.06026034  0.46440505    -0.19900
C1135       C  0.84062984  0.08805964  0.47429752    -0.25200
C1136       C  0.81394653  0.09147884  0.48553534     0.27500
H1137       H  0.78222409  0.01956591  0.47889791     0.13200
N1138       N  0.83126154  0.00571550  0.45727704    -0.82500
H1139       H  0.85658155  0.10751354  0.47297658     0.18100
N1140       N  0.80817677  0.12015476  0.49535222    -0.81100
H1141       H  0.81325692  0.98991859  0.45994210     0.33700
H1142       H  0.85153203  0.99613233  0.46312697     0.38200
H1143       H  0.82615592  0.13609897  0.49292715     0.33700
H1144       H  0.78777185  0.13010223  0.48991024     0.30400
H1145       H  0.71026177  0.08420408  0.46555380     0.33700
H1146       H  0.74585753  0.10036928  0.46661501     0.30400
H1147       H  0.73291473  0.08486146  0.55403785     0.38300
H1148       H  0.76284856  0.05966531  0.55216584     0.33700
C1149       C  0.13147313  0.92109467  0.19655283    -0.20000
C1150       C  0.11971869  0.92384791  0.21479408     0.36200
C1151       C  0.12138412  0.95257929  0.22401083    -0.26000
C1152       C  0.13444915  0.97878924  0.21540872     0.02600
C1153       C  0.14643318  0.97622125  0.19729375     0.27400
C1154       C  0.14496246  0.94739139  0.18809319    -0.25100
N1155       N  0.10646371  0.89757739  0.22417970    -0.82500
H1156       H  0.11251679  0.95441695  0.23804657     0.13300
C1157       C  0.13525376  0.00875502  0.22559858     0.02600
N1158       N  0.15970599  0.00297932  0.18825640    -0.81100
H1159       H  0.15411148  0.94564585  0.17413129     0.18100
C1160       C  0.16407711  0.02316722  0.22903599    -0.25900
C1161       C  0.16575452  0.05091241  0.23937234     0.36100
C1162       C  0.13803402  0.06400049  0.24672111    -0.19900
C1163       C  0.10914942  0.05003190  0.24274967    -0.25200
C1164       C  0.10746331  0.02260924  0.23218735     0.27500
H1165       H  0.18533613  0.01251603  0.22379445     0.13200
N1166       N  0.19538429  0.06587076  0.24233219    -0.82500
H1167       H  0.08782882  0.06012637  0.24828000     0.18100
N1168       N  0.07769397  0.00861043  0.22820252    -0.81100
H1169       H  0.21339351  0.05315957  0.23602335     0.33700
H1170       H  0.19454898  0.08754409  0.23567304     0.38200
H1171       H  0.05953700  0.02160127  0.23417017     0.33700
H1172       H  0.07435622  0.00953273  0.21385967     0.30400
H1173       H  0.16767029  0.99710515  0.17499721     0.33700
H1174       H  0.14182414  0.01942379  0.18647980     0.30400
H1175       H  0.08355927  0.90330806  0.22792902     0.38300
H1176       H  0.11927695  0.89371120  0.23633921     0.33700
C1177       C  0.99428284  0.05576098  0.39496146    -0.20000
C1178       C  0.00507473  0.02866394  0.38574934     0.36200
C1179       C  0.02870278  0.03112974  0.37230032    -0.26000
C1180       C  0.04167000  0.06022313  0.36796124     0.02600
C1181       C  0.03113139  0.08713870  0.37727354     0.27400
C1182       C  0.00800510  0.08464758  0.39086309    -0.25100
N1183       N  0.99221535  0.99869098  0.39000549    -0.82500
H1184       H  0.03644123  0.01043639  0.36493035     0.13300
C1185       C  0.06295717  0.06337967  0.35199975     0.02600
N1186       N  0.04280539  0.11729892  0.37227356    -0.81100
H1187       H  0.99974617  0.10573882  0.39761555     0.18100
C1188       C  0.05004766  0.06154822  0.33419509    -0.25900
C1189       C  0.06695679  0.07157786  0.31868012     0.36100
C1190       C  0.09729056  0.08381078  0.32115486    -0.19900
C1191       C  0.11136020  0.08253149  0.33873688    -0.25200
C1192       C  0.09436129  0.07251929  0.35428420     0.27500
H1193       H  0.02604114  0.05399426  0.33255277     0.13200
N1194       N  0.05307707  0.07043363  0.30052805    -0.82500
H1195       H  0.13487014  0.09135506  0.34058549     0.18100
N1196       N  0.10864764  0.07202897  0.37234027    -0.81100
H1197       H  0.06650365  0.05511777  0.29247936     0.33700
H1198       H  0.03058718  0.06101129  0.30115695     0.38200
H1199       H  0.13211600  0.07858026  0.37147392     0.33700
H1200       H  0.09763046  0.08885812  0.38057345     0.30400
H1201       H  0.02393899  0.13099058  0.36786944     0.33700
H1202       H  0.05219933  0.12766518  0.38416538     0.30400
H1203       H  0.98301440  0.98927231  0.37779637     0.38300
H1204       H  0.01045728  0.98416792  0.39443162     0.33700
C1205       C  0.29154675  0.36365864  0.52085134    -0.20000
C1206       C  0.26301917  0.37763699  0.52666593     0.36200
C1207       C  0.23584856  0.37352206  0.51594060    -0.26000
C1208       C  0.23649479  0.35643243  0.49938440     0.02600
C1209       C  0.26471938  0.34258665  0.49349863     0.27400
C1210       C  0.29183305  0.34621813  0.50429037    -0.25100
N1211       N  0.26148021  0.39594899  0.54335942    -0.82500
H1212       H  0.21413281  0.38446204  0.52023924     0.13300
C1213       C  0.20784350  0.35487629  0.48779447     0.02600
N1214       N  0.26569854  0.32492024  0.47654738    -0.81100
H1215       H  0.31338043  0.33543693  0.49960968     0.18100
C1216       C  0.20838594  0.36808235  0.47004392    -0.25900
C1217       C  0.18161195  0.36832389  0.45879008     0.36100
C1218       C  0.15336525  0.35568163  0.46561340    -0.19900
C1219       C  0.15303513  0.34167401  0.48321817    -0.25200
C1220       C  0.18005895  0.34115641  0.49439657     0.27500
H1221       H  0.22984669  0.37840786  0.46499189     0.13200
N1222       N  0.18316571  0.38095142  0.44034374    -0.82500
H1223       H  0.13154896  0.33155695  0.48836820     0.18100
N1224       N  0.17946271  0.32682916  0.51240407    -0.81100
H1225       H  0.20555361  0.38945967  0.43754068     0.33700
H1226       H  0.17934211  0.36257910  0.43106442     0.38200
H1227       H  0.15726551  0.31787488  0.51521698     0.33700
H1228       H  0.19482553  0.30777110  0.51209494     0.30400
H1229       H  0.28827031  0.31643134  0.47407581     0.33700
H1230       H  0.25134002  0.30543261  0.47826184     0.30400
H1231       H  0.27360033  0.41667612  0.54089023     0.38300
H1232       H  0.23840261  0.40255004  0.54622007     0.33700
C1233       C  0.12333639  0.31423771  0.39223911    -0.20000
C1234       C  0.13721804  0.28451608  0.39436188     0.36200
C1235       C  0.14442685  0.26683138  0.37853203    -0.26000
C1236       C  0.13772993  0.27826336  0.36075809     0.02600
C1237       C  0.12600268  0.30880534  0.35859129     0.27400
C1238       C  0.11916914  0.32668235  0.37440407    -0.25100
N1239       N  0.14287752  0.27203418  0.41255802    -0.82500
H1240       H  0.15354277  0.24332327  0.38006498     0.13300
C1241       C  0.13869364  0.25631880  0.34496865     0.02600
N1242       N  0.11974482  0.32086522  0.34036762    -0.81100
H1243       H  0.10850219  0.34951652  0.37278651     0.18100
C1244       C  0.11033198  0.24731590  0.33690135    -0.25900
C1245       C  0.10914683  0.22322883  0.32373892     0.36100
C1246       C  0.13720376  0.20814554  0.31829878    -0.19900
C1247       C  0.16577045  0.21814309  0.32595995    -0.25200
C1248       C  0.16675948  0.24209744  0.33925925     0.27500
H1249       H  0.08880756  0.25822272  0.34156129     0.13200
N1250       N  0.07943947  0.21343711  0.31646027    -0.82500
H1251       H  0.18742474  0.20709703  0.32167397     0.18100
N1252       N  0.19600700  0.25183163  0.34716425    -0.81100
H1253       H  0.06137113  0.22753981  0.32154955     0.33700
H1254       H  0.07520275  0.19090793  0.32142684     0.38200
H1255       H  0.21450817  0.23899232  0.34151350     0.33700
H1256       H  0.19954567  0.27512145  0.34333880     0.30400
H1257       H  0.11071766  0.34353340  0.34116988     0.33700
H1258       H  0.14114198  0.32242275  0.33341307     0.30400
H1259       H  0.15931537  0.28641153  0.41903772     0.38300
H1260       H  0.15297706  0.24981591  0.41167938     0.33700
C1261       C  0.86826497  0.35885624  0.24367557    -0.20000
C1262       C  0.89660068  0.37338748  0.23845528     0.36200
C1263       C  0.89548747  0.40175714  0.22857865    -0.26000
C1264       C  0.86676500  0.41530658  0.22361496     0.02600
C1265       C  0.83866775  0.40019678  0.22816136     0.27400
C1266       C  0.83971667  0.37214625  0.23805696    -0.25100
N1267       N  0.92619950  0.36020576  0.24384712    -0.82500
H1268       H  0.91698011  0.41357132  0.22492758     0.13300
C1269       C  0.86572275  0.44605221  0.21436889     0.02600
N1270       N  0.80910802  0.41392333  0.22311840    -0.81100
H1271       H  0.81794250  0.36096166  0.24182144     0.18100
C1272       C  0.85402269  0.44795388  0.19627558    -0.25900
C1273       C  0.84832064  0.47697891  0.18789255     0.36100
C1274       C  0.85409825  0.50471727  0.19800735    -0.19900
C1275       C  0.86709507  0.50265752  0.21586664    -0.25200
C1276       C  0.87274871  0.47355620  0.22421140     0.27500
H1277       H  0.84878440  0.42661533  0.18882424     0.13200
N1278       N  0.83687399  0.47827647  0.16915403    -0.82500
H1279       H  0.87198541  0.52381275  0.22357146     0.18100
N1280       N  0.88470888  0.47178029  0.24281587    -0.81100
H1281       H  0.83345076  0.45582892  0.16388098     0.33700
H1282       H  0.85432162  0.48849253  0.16101743     0.38200
H1283       H  0.88880724  0.49416310  0.24809368     0.33700
H1284       H  0.86736166  0.46189400  0.25111504     0.30400
H1285       H  0.79060938  0.39974757  0.22738387     0.33700
H1286       H  0.80685229  0.43495322  0.23037413     0.30400
H1287       H  0.92916360  0.33945938  0.23642277     0.38300
H1288       H  0.94453284  0.37482629  0.23981567     0.33700
C1289       C  0.00535360  0.35816056  0.39654918    -0.20000
C1290       C  0.98902448  0.33048587  0.39195711     0.36200
C1291       C  0.96809397  0.33072661  0.37699062    -0.26000
C1292       C  0.96330891  0.35767262  0.36640945     0.02600
C1293       C  0.97785594  0.38575325  0.37151509     0.27400
C1294       C  0.99871922  0.38574717  0.38658582    -0.25100
N1295       N  0.99448141  0.30190052  0.40190876    -0.82500
H1296       H  0.95646225  0.30931811  0.37295840     0.13300
C1297       C  0.94504608  0.35460612  0.34917676     0.02600
N1298       N  0.97136022  0.41402242  0.36145285    -0.81100
H1299       H  0.01045202  0.40726790  0.39023228     0.18100
C1300       C  0.91238355  0.35466170  0.35013939    -0.25900
C1301       C  0.89424125  0.34389238  0.33519388     0.36100
C1302       C  0.90933204  0.33351346  0.31878681    -0.19900
C1303       C  0.94209318  0.33559860  0.31756601    -0.25200
C1304       C  0.96010414  0.34565892  0.33266129     0.27500
H1305       H  0.90115143  0.36110676  0.36306055     0.13200
N1306       N  0.86085856  0.34179349  0.33714076    -0.82500
H1307       H  0.95390689  0.32797022  0.30506726     0.18100
N1308       N  0.99370349  0.34470245  0.33177072    -0.81100
H1309       H  0.85360951  0.35154122  0.34975087     0.33700
H1310       H  0.85517675  0.31812092  0.33776953     0.38200
H1311       H  0.00114701  0.33631317  0.31888729     0.33700
H1312       H  0.00184728  0.36759960  0.33279430     0.30400
H1313       H  0.98363109  0.43277519  0.36722412     0.33700
H1314       H  0.97970638  0.41128861  0.34796235     0.30400
H1315       H  0.01698092  0.29415683  0.39852954     0.38300
H1316       H  0.97920189  0.28444389  0.39741699     0.33700
C1317       C  0.88099585  0.11498198  0.39280206    -0.20000
C1318       C  0.88628918  0.14766698  0.39341361     0.36200
C1319       C  0.87811054  0.16618136  0.37810895    -0.26000
C1320       C  0.86412101  0.15320529  0.36235300     0.02600
C1321       C  0.85705540  0.12113254  0.36205444     0.27400
C1322       C  0.86566995  0.10230581  0.37722752    -0.25100
N1323       N  0.90064317  0.16203031  0.40929517    -0.82500
H1324       H  0.88339507  0.19091212  0.37826538     0.13300
C1325       C  0.85896009  0.17351091  0.34597577     0.02600
N1326       N  0.84157432  0.10780145  0.34624185    -0.81100
H1327       H  0.86110239  0.07747095  0.37661789     0.18100
C1328       C  0.87500153  0.16697257  0.32945337    -0.25900
C1329       C  0.87461167  0.18818177  0.31462582     0.36100
C1330       C  0.85788390  0.21651517  0.31629087    -0.19900
C1331       C  0.84042751  0.22214707  0.33248345    -0.25200
C1332       C  0.84085275  0.20098056  0.34733914     0.27500
H1333       H  0.88890556  0.14584279  0.32831990     0.13200
N1334       N  0.89137215  0.18087546  0.29798562    -0.82500
H1335       H  0.82728141  0.24369886  0.33387789     0.18100
N1336       N  0.82360609  0.20756747  0.36400176    -0.81100
H1337       H  0.88264943  0.15988333  0.29272974     0.33700
H1338       H  0.91487858  0.17738866  0.30144424     0.38200
H1339       H  0.81171260  0.22885627  0.36286759     0.33700
H1340       H  0.80657067  0.19028476  0.36540794     0.30400
H1341       H  0.83811954  0.08389545  0.34815061     0.33700
H1342       H  0.81934085  0.11801862  0.34536075     0.30400
H1343       H  0.88491632  0.16015466  0.42034316     0.38300
H1344       H  0.90398096  0.18589667  0.40711151     0.33700
C1345       C  0.12862273  0.05581135  0.97275508    -0.20000
C1346       C  0.15559504  0.03701492  0.97003225     0.36200
C1347       C  0.17977001  0.03766605  0.98319195    -0.26000
C1348       C  0.17809536  0.05711451  0.99876648     0.02600
C1349       C  0.15147738  0.07601919  0.00152584     0.27400
C1350       C  0.12699204  0.07517737  0.98850385    -0.25100
N1351       N  0.15888623  0.01798711  0.95370576    -0.82500
H1352       H  0.20061140  0.02365940  0.98099501     0.13300
C1353       C  0.20557915  0.05886139  0.01123029     0.02600
N1354       N  0.14949409  0.09596233  0.01752453    -0.81100
H1355       H  0.10648431  0.08962410  0.99073599     0.18100
C1356       C  0.22232059  0.08685879  0.01226451    -0.25900
C1357       C  0.25084108  0.08852377  0.02188147     0.36100
C1358       C  0.26253087  0.06162668  0.03094998    -0.19900
C1359       C  0.24492258  0.03399038  0.03061210    -0.25200
C1360       C  0.21665843  0.03227381  0.02071510     0.27500
H1361       H  0.21367868  0.10718875  0.00490135     0.13200
N1362       N  0.26763349  0.11752100  0.02262345    -0.82500
H1363       H  0.25372421  0.01338192  0.03762655     0.18100
N1364       N  0.19937326  0.00357412  0.01997724    -0.81100
H1365       H  0.25422402  0.13557894  0.01690406     0.33700
H1366       H  0.28720640  0.11525168  0.01406145     0.38200
H1367       H  0.21080556  0.98612506  0.02756706     0.33700
H1368       H  0.17787985  0.00747643  0.02647934     0.30400
H1369       H  0.12846903  0.10850098  0.01747961     0.33700
H1370       H  0.14907213  0.08163309  0.02925232     0.30400
H1371       H  0.16060648  0.03301832  0.94234812     0.38300
H1372       H  0.17976957  0.00518810  0.95410497     0.33700
C1373       C  0.64048692  0.01366014  0.19687118    -0.20000
C1374       C  0.62347059  0.01076631  0.21364876     0.36200
C1375       C  0.62566961  0.98292707  0.22388271    -0.26000
C1376       C  0.64381501  0.95782090  0.21757599     0.02600
C1377       C  0.66019635  0.96019567  0.20078303     0.27400
C1378       C  0.65836213  0.98801950  0.19059276    -0.25100
N1379       N  0.60415821  0.03590389  0.22034573    -0.82500
H1380       H  0.61307200  0.98066033  0.23684226     0.13300
C1381       C  0.64596863  0.92936856  0.22900622     0.02600
N1382       N  0.67884942  0.93442616  0.19426774    -0.81100
H1383       H  0.67143945  0.98972050  0.17778559     0.18100
C1384       C  0.62842363  0.90306995  0.22413876    -0.25900
C1385       C  0.62895635  0.87605904  0.23521159     0.36100
C1386       C  0.64715895  0.87573121  0.25161010    -0.19900
C1387       C  0.66543281  0.90195400  0.25603451    -0.25200
C1388       C  0.66510352  0.92869981  0.24484611     0.27500
H1389       H  0.61415958  0.90376097  0.21171947     0.13200
N1390       N  0.61130195  0.84905699  0.22978072    -0.82500
H1391       H  0.67964766  0.90187141  0.26847208     0.18100
N1392       N  0.68383985  0.95536048  0.24956592    -0.81100
H1393       H  0.59899651  0.85338650  0.21750041     0.33700
H1394       H  0.62726688  0.83119681  0.22682379     0.38200
H1395       H  0.69644034  0.95121237  0.26175258     0.33700
H1396       H  0.70034035  0.95828773  0.23902598     0.30400
H1397       H  0.68926164  0.93983123  0.18156731     0.33700
H1398       H  0.69707638  0.93106192  0.20373934     0.30400
H1399       H  0.58539465  0.03828663  0.21114732     0.38300
H1400       H  0.59442392  0.03030139  0.23321021     0.33700
C1401       C  0.71886701  0.12401596  0.19596419    -0.20000
C1402       C  0.71696136  0.12966744  0.21521861     0.36200
C1403       C  0.73853828  0.14979609  0.22359899    -0.26000
C1404       C  0.76191995  0.16432811  0.21313979     0.02600
C1405       C  0.76544667  0.15676309  0.19422953     0.27400
C1406       C  0.74398023  0.13632422  0.18583059    -0.25100
N1407       N  0.69248987  0.11572211  0.22604244    -0.82500
H1408       H  0.73648608  0.15511057  0.23824313     0.13300
C1409       C  0.78112227  0.18874438  0.22210785     0.02600
N1410       N  0.78980539  0.17101167  0.18347866    -0.81100
H1411       H  0.74548054  0.13191755  0.17106453     0.18100
C1412       C  0.81333801  0.18416523  0.22425432    -0.25900
C1413       C  0.83149981  0.20557970  0.23426147     0.36100
C1414       C  0.81718760  0.23217496  0.24232884    -0.19900
C1415       C  0.78508654  0.23733342  0.23936255    -0.25200
C1416       C  0.76696737  0.21598298  0.22927233     0.27500
H1417       H  0.82427174  0.16332082  0.21865866     0.13200
N1418       N  0.86418656  0.19946380  0.23674173    -0.82500
H1419       H  0.77389621  0.25783404  0.24520495     0.18100
N1420       N  0.73411624  0.22155532  0.22646564    -0.81100
H1421       H  0.86664623  0.17782187  0.24328558     0.33700
H1422       H  0.87451445  0.19787378  0.22363542     0.38200
H1423       H  0.72725444  0.24254041  0.23270360     0.33700
H1424       H  0.73045283  0.22424635  0.21222383     0.30400
H1425       H  0.78914943  0.16298817  0.16978449     0.33700
H1426       H  0.78527186  0.19499861  0.18300051     0.30400
H1427       H  0.69585631  0.09150449  0.22567744     0.38300
H1428       H  0.69424198  0.12244714  0.23992416     0.33700
C1429       C  0.43070903  0.05746848  0.08180001    -0.20000
C1430       C  0.45842958  0.06930435  0.07365560     0.36200
C1431       C  0.48629626  0.06982389  0.08407498    -0.26000
C1432       C  0.48717577  0.05839517  0.10225606     0.02600
C1433       C  0.46014446  0.04522680  0.11006349     0.27400
C1434       C  0.43225296  0.04492222  0.09981154    -0.25100
N1435       N  0.45828809  0.08099831  0.05498057    -0.82500
H1436       H  0.50727780  0.07984677  0.07817376     0.13300
C1437       C  0.51558065  0.06290687  0.11368477     0.02600
N1438       N  0.46108200  0.03276493  0.12856010    -0.81100
H1439       H  0.41143443  0.03540062  0.10616811     0.18100
C1440       C  0.51403896  0.08395118  0.12847254    -0.25900
C1441       C  0.53995997  0.08927811  0.13985246     0.36100
C1442       C  0.56839043  0.07307031  0.13654354    -0.19900
C1443       C  0.56989149  0.05198072  0.12157883    -0.25200
C1444       C  0.54366722  0.04666413  0.11014759     0.27500
H1445       H  0.49249088  0.09661878  0.13111814     0.13200
N1446       N  0.53726027  0.11175218  0.15450236    -0.82500
H1447       H  0.59146906  0.03947862  0.11884073     0.18100
N1448       N  0.54531897  0.02476662  0.09507328    -0.81100
H1449       H  0.51912669  0.10478125  0.16328118     0.33700
H1450       H  0.53108713  0.13324721  0.14866990     0.38200
H1451       H  0.56764124  0.01476842  0.09431039     0.33700
H1452       H  0.52983817  0.00660902  0.09800462     0.30400
H1453       H  0.43917526  0.02409661  0.13236811     0.33700
H1454       H  0.47645924  0.01373545  0.12848877     0.30400
H1455       H  0.45401093  0.06207739  0.04617342     0.38300
H1456       H  0.48030928  0.08959394  0.05137856     0.33700
C1457       C  0.34640506  0.57615389  0.24931936    -0.20000
C1458       C  0.36024928  0.57374421  0.23162615     0.36200
C1459       C  0.35735560  0.54593686  0.22149472    -0.26000
C1460       C  0.34064243  0.52057813  0.22867825     0.02600
C1461       C  0.32605669  0.52318801  0.24612349     0.27400
C1462       C  0.32921108  0.55086509  0.25628514    -0.25100
N1463       N  0.37677681  0.59954362  0.22374920    -0.82500
H1464       H  0.36848682  0.54400963  0.20804678     0.13300
C1465       C  0.33936481  0.49094459  0.21819206     0.02600
N1466       N  0.30812846  0.49765980  0.25342860    -0.81100
H1467       H  0.31835980  0.55253626  0.26982020     0.18100
C1468       C  0.35088425  0.46374620  0.22656697    -0.25900
C1469       C  0.34881382  0.43471647  0.21768409     0.36100
C1470       C  0.33579256  0.43303906  0.19965340    -0.19900
C1471       C  0.32467299  0.46053001  0.19119425    -0.25200
C1472       C  0.32611427  0.48943764  0.20034465     0.27500
H1473       H  0.36107746  0.46516504  0.24030314     0.13200
N1474       N  0.35933372  0.40702569  0.22712037    -0.82500
H1475       H  0.31467154  0.45950541  0.17740666     0.18100
N1476       N  0.31385649  0.51715815  0.19171312    -0.81100
H1477       H  0.36894758  0.41259040  0.24003688     0.33700
H1478       H  0.33964735  0.39334046  0.22978376     0.38200
H1479       H  0.30504362  0.51206712  0.17853846     0.33700
H1480       H  0.29491568  0.52489673  0.19967583     0.30400
H1481       H  0.29913138  0.50325057  0.26650428     0.33700
H1482       H  0.28893593  0.49435950  0.24467764     0.30400
H1483       H  0.39959124  0.59218934  0.22080617     0.38300
H1484       H  0.36594860  0.60546366  0.21123312     0.33700
C1485       C  0.17715623  0.19711077  0.24694089    -0.20000
C1486       C  0.15962526  0.22293278  0.24036741     0.36200
C1487       C  0.17490220  0.24763621  0.23160321    -0.26000
C1488       C  0.20730859  0.24708266  0.22923432     0.02600
C1489       C  0.22482043  0.22086340  0.23495874     0.27400
C1490       C  0.20957294  0.19616831  0.24385286    -0.25100
N1491       N  0.12651411  0.22490432  0.24316534    -0.82500
H1492       H  0.16148676  0.26775350  0.22705477     0.13300
C1493       C  0.22287114  0.27418273  0.22086081     0.02600
N1494       N  0.25802372  0.21965849  0.23185185    -0.81100
H1495       H  0.22317799  0.17637680  0.24867293     0.18100
C1496       C  0.24536291  0.29026631  0.23124079    -0.25900
C1497       C  0.26424085  0.31286522  0.22288956     0.36100
C1498       C  0.26018331  0.31939496  0.20388531    -0.19900
C1499       C  0.23539701  0.30575633  0.19409016    -0.25200
C1500       C  0.21692753  0.28270574  0.20234148     0.27500
H1501       H  0.24911989  0.28407464  0.24564051     0.13200
N1502       N  0.28837197  0.32820062  0.23334070    -0.82500
H1503       H  0.23232108  0.31087116  0.17949004     0.18100
N1504       N  0.19351838  0.26662480  0.19171219    -0.81100
H1505       H  0.28296394  0.35204512  0.23366263     0.33700
H1506       H  0.28838815  0.32050946  0.24708398     0.38200
H1507       H  0.19216469  0.27574105  0.17828630     0.33700
H1508       H  0.20069306  0.24337296  0.19035480     0.30400
H1509       H  0.26747901  0.19881396  0.23702555     0.33700
H1510       H  0.26167222  0.21938818  0.21754464     0.30400
H1511       H  0.11580914  0.22724695  0.23021131     0.38300
H1512       H  0.12174083  0.24509206  0.25085652     0.33700
C1513       C  0.32175225  0.27009348  0.14472647    -0.20000
C1514       C  0.29351682  0.26063818  0.13623560     0.36200
C1515       C  0.29301745  0.23304395  0.12569448    -0.26000
C1516       C  0.32001492  0.21479361  0.12367142     0.02600
C1517       C  0.34802684  0.22380101  0.13239630     0.27400
C1518       C  0.34854978  0.25127697  0.14299382    -0.25100
N1519       N  0.26550597  0.27895401  0.13840851    -0.82500
H1520       H  0.27164926  0.22586965  0.11884890     0.13300
C1521       C  0.31938805  0.18743808  0.11128748     0.02600
N1522       N  0.37605741  0.20563615  0.12983951    -0.81100
H1523       H  0.37023879  0.25857017  0.14942425     0.18100
C1524       C  0.32588383  0.19184873  0.09249751    -0.25900
C1525       C  0.32801066  0.16638531  0.08032582     0.36100
C1526       C  0.32445942  0.13565126  0.08733003    -0.19900
C1527       C  0.31623125  0.13159147  0.10606298    -0.25200
C1528       C  0.31353144  0.15727390  0.11810651     0.27500
H1529       H  0.32967523  0.21532212  0.08737907     0.13200
N1530       N  0.33403307  0.17175703  0.06097606    -0.82500
H1531       H  0.31283703  0.10828929  0.11150649     0.18100
N1532       N  0.30493433  0.15289488  0.13719173    -0.81100
H1533       H  0.31424233  0.16460719  0.05361779     0.33700
H1534       H  0.33668775  0.19560265  0.05829871     0.38200
H1535       H  0.30090744  0.12930845  0.13991646     0.33700
H1536       H  0.32393932  0.15948012  0.14543140     0.30400
H1537       H  0.39485030  0.21590231  0.13681489     0.33700
H1538       H  0.37257954  0.18385597  0.13598747     0.30400
H1539       H  0.24693548  0.26886731  0.13114817     0.38300
H1540       H  0.25940793  0.27840713  0.15243991     0.33700
C1541       C  0.82497504  0.36133207  0.96305930    -0.20000
C1542       C  0.82075247  0.34170012  0.97869041     0.36200
C1543       C  0.79267149  0.34332620  0.98871954    -0.26000
C1544       C  0.76895821  0.36424654  0.98367269     0.02600
C1545       C  0.77271281  0.38340145  0.96801200     0.27400
C1546       C  0.80071614  0.38188578  0.95791795    -0.25100
N1547       N  0.84499472  0.32054832  0.98457069    -0.82500
H1548       H  0.78948661  0.32872274  0.00083349     0.13300
C1549       C  0.74065895  0.36656580  0.99530464     0.02600
N1550       N  0.74795580  0.40417283  0.96241161    -0.81100
H1551       H  0.80341664  0.39668165  0.94585870     0.18100
C1552       C  0.73460775  0.39445399  0.00486866    -0.25900
C1553       C  0.70797667  0.39769732  0.01609214     0.36100
C1554       C  0.68717225  0.37233572  0.01778739    -0.19900
C1555       C  0.69354034  0.34433987  0.00829416    -0.25200
C1556       C  0.72005068  0.34121477  0.99703678     0.27500
H1557       H  0.75073760  0.41376727  0.00349131     0.13200
N1558       N  0.70181411  0.42671436  0.02546381    -0.82500
H1559       H  0.67778482  0.32472490  0.00969155     0.18100
N1560       N  0.72605636  0.31253777  0.98726217    -0.81100
H1561       H  0.71966422  0.44274814  0.02290669     0.33700
H1562       H  0.68141539  0.43622978  0.01974811     0.38200
H1563       H  0.70873180  0.29608367  0.99016675     0.33700
H1564       H  0.72456504  0.31730098  0.97307747     0.30400
H1565       H  0.75442443  0.41675732  0.95060869     0.33700
H1566       H  0.72881832  0.39046757  0.95861273     0.30400
H1567       H  0.86364633  0.33400466  0.98935500     0.38300
H1568       H  0.83754736  0.30711469  0.99584712     0.33700
C1569       C  0.65137765  0.17223344  0.13761409    -0.20000
C1570       C  0.68012643  0.18176113  0.12984269     0.36200
C1571       C  0.68096330  0.20862673  0.11870471    -0.26000
C1572       C  0.65364599  0.22574226  0.11524823     0.02600
C1573       C  0.62492211  0.21606352  0.12282189     0.27400
C1574       C  0.62415699  0.18957585  0.13418572    -0.25100
N1575       N  0.70825964  0.16424381  0.13337645    -0.82500
H1576       H  0.70281597  0.21615102  0.11259730     0.13300
C1577       C  0.65462656  0.25293843  0.10285345     0.02600
N1578       N  0.59651775  0.23250433  0.11831917    -0.81100
H1579       H  0.60207776  0.18182186  0.13989892     0.18100
C1580       C  0.65052143  0.24809025  0.08385299    -0.25900
C1581       C  0.64533790  0.27332016  0.07187701     0.36100
C1582       C  0.64346761  0.30389823  0.07926999    -0.19900
C1583       C  0.65039357  0.30880689  0.09810164    -0.25200
C1584       C  0.65602782  0.28347488  0.11000748     0.27500
H1585       H  0.65017618  0.22443729  0.07849583     0.13200
N1586       N  0.64130210  0.26791384  0.05234147    -0.82500
H1587       H  0.64980382  0.33224422  0.10375737     0.18100
N1588       N  0.66258152  0.28851597  0.12933750    -0.81100
H1589       H  0.64308505  0.24409905  0.04927907     0.33700
H1590       H  0.65979284  0.27885937  0.04549017     0.38200
H1591       H  0.66320482  0.31240897  0.13230169     0.33700
H1592       H  0.64413696  0.27927678  0.13704425     0.30400
H1593       H  0.57728755  0.22174197  0.12451775     0.33700
H1594       H  0.59791461  0.25488241  0.12403378     0.30400
H1595       H  0.71300040  0.16582990  0.14756788     0.38300
H1596       H  0.72726531  0.17426891  0.12652146     0.33700
C1597       C  0.39882675  0.37432525  0.13781550    -0.20000
C1598       C  0.42970281  0.37810293  0.14442485     0.36200
C1599       C  0.45422688  0.38050176  0.13170558    -0.26000
C1600       C  0.44851192  0.37942263  0.11263018     0.02600
C1601       C  0.41772561  0.37683993  0.10593008     0.27400
C1602       C  0.39302430  0.37447823  0.11864231    -0.25100
N1603       N  0.43609908  0.37914286  0.16399474    -0.82500
H1604       H  0.47807251  0.38254751  0.13665799     0.13300
C1605       C  0.47552782  0.37947437  0.10004446     0.02600
N1606       N  0.41186110  0.37601785  0.08631306    -0.81100
H1607       H  0.36936902  0.37149709  0.11356416     0.18100
C1608       C  0.48323579  0.35196478  0.09058581    -0.25900
C1609       C  0.51098736  0.34975207  0.08032888     0.36100
C1610       C  0.53100710  0.37589553  0.07933931    -0.19900
C1611       C  0.52288735  0.40357868  0.08863752    -0.25200
C1612       C  0.49522697  0.40562104  0.09897659     0.27500
H1613       H  0.46809764  0.33183000  0.09180647     0.13200
N1614       N  0.51933606  0.32082830  0.07143699    -0.82500
H1615       H  0.53803521  0.42374153  0.08771585     0.18100
N1616       N  0.48708858  0.43395431  0.10856219    -0.81100
H1617       H  0.50196141  0.30406477  0.07346513     0.33700
H1618       H  0.53949714  0.31232379  0.07794787     0.38200
H1619       H  0.50413615  0.45100668  0.10643605     0.33700
H1620       H  0.46640479  0.44249334  0.10267591     0.30400
H1621       H  0.38792178  0.37378794  0.08369211     0.33700
H1622       H  0.41860956  0.39756555  0.08084766     0.30400
H1623       H  0.42533782  0.39920050  0.16930066     0.38300
H1624       H  0.46007733  0.38153690  0.16645450     0.33700
C1625       C  0.61576429  0.86469744  0.97587537    -0.20000
C1626       C  0.61566701  0.85201396  0.99395215     0.36200
C1627       C  0.64350009  0.85196520  0.00436708    -0.26000
C1628       C  0.67103320  0.86454445  0.99703919     0.02600
C1629       C  0.67090188  0.87820369  0.97932774     0.27400
C1630       C  0.64322867  0.87822988  0.96892853    -0.25100
N1631       N  0.58741097  0.83944273  0.00165942    -0.82500
H1632       H  0.64388487  0.84183347  0.01812713     0.13300
C1633       C  0.70037754  0.86248291  0.00766418     0.02600
N1634       N  0.69913569  0.89122919  0.97182598    -0.81100
H1635       H  0.64338093  0.88800800  0.95507831     0.18100
C1636       C  0.72103425  0.83783805  0.00398041    -0.25900
C1637       C  0.75031769  0.83611483  0.01274914     0.36100
C1638       C  0.75929586  0.86014412  0.02515398    -0.19900
C1639       C  0.73795038  0.88438379  0.02910579    -0.25200
C1640       C  0.70858042  0.88576743  0.02047477     0.27500
H1641       H  0.71426099  0.81997678  0.99412547     0.13200
N1642       N  0.77073008  0.81007227  0.00908283    -0.82500
H1643       H  0.74435779  0.90275261  0.03869764     0.18100
N1644       N  0.68713418  0.91079540  0.02453608    -0.81100
H1645       H  0.76080606  0.79504704  0.99930361     0.33700
H1646       H  0.77275392  0.79726684  0.02137201     0.38200
H1647       H  0.69659500  0.92583216  0.03447338     0.33700
H1648       H  0.68424173  0.92395473  0.01245227     0.30400
H1649       H  0.69522186  0.89988796  0.95847533     0.33700
H1650       H  0.70527481  0.91036737  0.98004788     0.30400
H1651       H  0.57138794  0.85783959  0.00292111     0.38300
H1652       H  0.59141363  0.83103568  0.01505937     0.33700
C1653       C  0.48293394  0.90038576  0.97436013    -0.20000
C1654       C  0.49056687  0.92546549  0.98613278     0.36200
C1655       C  0.46700600  0.93889724  0.99706773    -0.26000
C1656       C  0.43615385  0.92807995  0.99605346     0.02600
C1657       C  0.42853008  0.90300739  0.98434899     0.27400
C1658       C  0.45219022  0.88908659  0.97371847    -0.25100
N1659       N  0.52219019  0.93658757  0.98730677    -0.82500
H1660       H  0.47247582  0.95834944  0.00611611     0.13300
C1661       C  0.41195961  0.94481497  0.00658064     0.02600
N1662       N  0.39682396  0.89216718  0.98317872    -0.81100
H1663       H  0.44654982  0.86980075  0.96457941     0.18100
C1664       C  0.39252216  0.96580979  0.99713889    -0.25900
C1665       C  0.37378626  0.98700726  0.00696164     0.36100
C1666       C  0.37449420  0.98672787  0.02651451    -0.19900
C1667       C  0.39177501  0.96373487  0.03588433    -0.25200
C1668       C  0.41089706  0.94287011  0.02603021     0.27500
H1669       H  0.39342246  0.96686522  0.98213412     0.13200
N1670       N  0.35507927  0.00967914  0.99725027    -0.82500
H1671       H  0.39227028  0.96364075  0.05090647     0.18100
N1672       N  0.43050709  0.92085099  0.03562996    -0.81100
H1673       H  0.35748129  0.00691809  0.98289008     0.33700
H1674       H  0.33169178  0.00520885  0.00037057     0.38200
H1675       H  0.42731262  0.92272321  0.04995869     0.33700
H1676       H  0.42319809  0.89846018  0.03186101     0.30400
H1677       H  0.39513349  0.87368448  0.97375729     0.33700
H1678       H  0.39075740  0.88322712  0.99616642     0.30400
H1679       H  0.52402136  0.95398276  0.99742602     0.38300
H1680       H  0.52757776  0.94727493  0.97469606     0.33700
C1681       C  0.34305578  0.85878126  0.74237613    -0.20000
C1682       C  0.31462181  0.87357367  0.73730077     0.36200
C1683       C  0.31543697  0.90068471  0.72640403    -0.26000
C1684       C  0.34385640  0.91275218  0.72007558     0.02600
C1685       C  0.37197518  0.89682373  0.72393458     0.27400
C1686       C  0.37133916  0.87008343  0.73514379    -0.25100
N1687       N  0.28506706  0.86115763  0.74320771    -0.82500
H1688       H  0.29387666  0.91291131  0.72316917     0.13300
C1689       C  0.34407517  0.94343118  0.71073352     0.02600
N1690       N  0.40105977  0.90823944  0.71666758    -0.81100
H1691       H  0.39314456  0.85850397  0.73859428     0.18100
C1692       C  0.35970343  0.96817092  0.71932184    -0.25900
C1693       C  0.35996466  0.99809698  0.71145764     0.36100
C1694       C  0.34356790  0.00355543  0.69465700    -0.19900
C1695       C  0.32792344  0.97846129  0.68610166    -0.25200
C1696       C  0.32815380  0.94844722  0.69392931     0.27500
H1697       H  0.37171400  0.96405016  0.73233564     0.13200
N1698       N  0.37663425  0.02276438  0.72064998    -0.82500
H1699       H  0.31545504  0.98215461  0.67320995     0.18100
N1700       N  0.31236478  0.92303807  0.68491009    -0.81100
H1701       H  0.38546352  0.01518998  0.73338541     0.33700
H1702       H  0.39611940  0.02806823  0.71247974     0.38200
H1703       H  0.30165294  0.93063635  0.67267667     0.33700
H1704       H  0.32932878  0.90663057  0.68104897     0.30400
H1705       H  0.41963287  0.89391436  0.72082351     0.33700
H1706       H  0.39987566  0.90670616  0.70221490     0.30400
H1707       H  0.28239221  0.83936576  0.73687080     0.38300
H1708       H  0.26659084  0.87511895  0.73847856     0.33700
C1709       C  0.38498594  0.82923008  0.82025723    -0.20000
C1710       C  0.36856668  0.83581813  0.83692022     0.36200
C1711       C  0.38547269  0.84339692  0.85309538    -0.26000
C1712       C  0.41821103  0.84377648  0.85305928     0.02600
C1713       C  0.43455694  0.83827887  0.83647592     0.27400
C1714       C  0.41784183  0.83147957  0.82024959    -0.25100
N1715       N  0.33507188  0.83344950  0.83770114    -0.82500
H1716       H  0.37317935  0.84754164  0.86600232     0.13300
C1717       C  0.43560151  0.84716238  0.87066502     0.02600
N1718       N  0.46819595  0.83821804  0.83641083    -0.81100
H1719       H  0.43079886  0.82663235  0.80766919     0.18100
C1720       C  0.44530106  0.82010439  0.87995934    -0.25900
C1721       C  0.46569743  0.82169096  0.89521818     0.36100
C1722       C  0.47613280  0.85120269  0.90150923    -0.19900
C1723       C  0.46523013  0.87834722  0.89253994    -0.25200
C1724       C  0.44521519  0.87659522  0.87710760     0.27500
H1725       H  0.43795900  0.79754982  0.87473998     0.13200
N1726       N  0.47680406  0.79338861  0.90373171    -0.82500
H1727       H  0.47292666  0.90104790  0.89731263     0.18100
N1728       N  0.43497049  0.90448934  0.86779469    -0.81100
H1729       H  0.46621779  0.77387740  0.89771362     0.33700
H1730       H  0.50070401  0.79147078  0.90086953     0.38200
H1731       H  0.44391687  0.92429514  0.87439331     0.33700
H1732       H  0.44443041  0.90425323  0.85444320     0.30400
H1733       H  0.47675191  0.83290455  0.82321387     0.33700
H1734       H  0.47562369  0.86089022  0.83945327     0.30400
H1735       H  0.32940702  0.80983038  0.83642270     0.38300
H1736       H  0.32678717  0.84048274  0.85070275     0.33700
C1737       C  0.32743203  0.57094215  0.96095058    -0.20000
C1738       C  0.29933284  0.55701514  0.95489833     0.36200
C1739       C  0.27289130  0.55846932  0.96631427    -0.26000
C1740       C  0.27391627  0.57384408  0.98344631     0.02600
C1741       C  0.30185557  0.58785698  0.98949411     0.27400
C1742       C  0.32840907  0.58630210  0.97813513    -0.25100
N1743       N  0.29756025  0.54201126  0.93708332    -0.82500
H1744       H  0.25127382  0.54768737  0.96183334     0.13300
C1745       C  0.24539093  0.57480691  0.99488135     0.02600
N1746       N  0.30303599  0.60366552  0.00706988    -0.81100
H1747       H  0.35001604  0.59691770  0.98276130     0.18100
C1748       C  0.24547842  0.56014487  0.01220612    -0.25900
C1749       C  0.21825383  0.55887812  0.02299849     0.36100
C1750       C  0.19018272  0.57208006  0.01602291    -0.19900
C1751       C  0.19057198  0.58758313  0.99885562    -0.25200
C1752       C  0.21793850  0.58917693  0.98825209     0.27500
H1753       H  0.26683296  0.54932517  0.01720063     0.13200
N1754       N  0.21914746  0.54425590  0.04093168    -0.82500
H1755       H  0.16932546  0.59805606  0.99348159     0.18100
N1756       N  0.21798217  0.60505398  0.97069320    -0.81100
H1757       H  0.24141432  0.53516461  0.04368488     0.33700
H1758       H  0.21512944  0.56165138  0.05082944     0.38200
H1759       H  0.19582607  0.61421518  0.96775389     0.33700
H1760       H  0.23311843  0.62407075  0.97183229     0.30400
H1761       H  0.32543196  0.61250104  0.00950748     0.33700
H1762       H  0.28795206  0.62288906  0.00632556     0.30400
H1763       H  0.30081449  0.55917913  0.92697585     0.38300
H1764       H  0.27525896  0.53278260  0.93487653     0.33700
C1765       C  0.56862362  0.44383744  0.02046080    -0.20000
C1766       C  0.54756484  0.46323595  0.03023758     0.36200
C1767       C  0.52664316  0.48213044  0.02026609    -0.26000
C1768       C  0.52663313  0.48187175  0.00088040     0.02600
C1769       C  0.54855267  0.46359625  0.99110348     0.27400
C1770       C  0.56934869  0.44455547  0.00104535    -0.25100
N1771       N  0.54591104  0.46188937  0.05013194    -0.82500
H1772       H  0.50955729  0.49627467  0.02757010     0.13300
C1773       C  0.50215634  0.49919479  0.99092067     0.02600
N1774       N  0.54911057  0.46403101  0.97116938    -0.81100
H1775       H  0.58542342  0.42938205  0.99365753     0.18100
C1776       C  0.50790859  0.52987213  0.98537422    -0.25900
C1777       C  0.48591807  0.54634385  0.97471281     0.36100
C1778       C  0.45796643  0.53124772  0.96920548    -0.19900
C1779       C  0.45184184  0.50088857  0.97553321    -0.25200
C1780       C  0.47363902  0.48474836  0.98645892     0.27500
H1781       H  0.52986494  0.54074517  0.98913472     0.13200
N1782       N  0.49263470  0.57766003  0.96879072    -0.82500
H1783       H  0.43028222  0.48944641  0.97158416     0.18100
N1784       N  0.46711847  0.45368821  0.99292254    -0.81100
H1785       H  0.51513501  0.58423555  0.97294428     0.33700
H1786       H  0.47725443  0.59255115  0.97578327     0.38200
H1787       H  0.44486241  0.44668095  0.98869317     0.33700
H1788       H  0.48302338  0.43843705  0.98658342     0.30400
H1789       H  0.56697164  0.44952228  0.96615418     0.33700
H1790       H  0.52811203  0.45459240  0.96641868     0.30400
H1791       H  0.56666397  0.47119155  0.05535706     0.38300
H1792       H  0.52783548  0.47619069  0.05505966     0.33700
C1793       C  0.36046692  0.60655244  0.88582828    -0.20000
C1794       C  0.36718628  0.59479273  0.86795660     0.36200
C1795       C  0.36084350  0.61349015  0.85243103    -0.26000
C1796       C  0.34791776  0.64337535  0.85453054     0.02600
C1797       C  0.33926710  0.65423237  0.87223987     0.27400
C1798       C  0.34551980  0.63557725  0.88774406    -0.25100
N1799       N  0.38267411  0.56516705  0.86571950    -0.82500
H1800       H  0.36732864  0.60542348  0.83871049     0.13300
C1801       C  0.34685043  0.66457846  0.83848814     0.02600
N1802       N  0.32573175  0.68480642  0.87447447    -0.81100
H1803       H  0.34039536  0.64448511  0.90148438     0.18100
C1804       C  0.31792737  0.67549563  0.83209342    -0.25900
C1805       C  0.31626253  0.69861472  0.81837004     0.36100
C1806       C  0.34427338  0.71113058  0.81109177    -0.19900
C1807       C  0.37316554  0.69896035  0.81692954    -0.25200
C1808       C  0.37475772  0.67599633  0.83070665     0.27500
H1809       H  0.29664866  0.66637064  0.83814192     0.13200
N1810       N  0.28631307  0.70952947  0.81195222    -0.82500
H1811       H  0.39467208  0.70841688  0.81137747     0.18100
N1812       N  0.40457710  0.66504180  0.83733463    -0.81100
H1813       H  0.26817953  0.69817755  0.81895352     0.33700
H1814       H  0.28430074  0.70330754  0.79800373     0.38200
H1815       H  0.42282215  0.67571326  0.83008129     0.33700
H1816       H  0.40677716  0.67202359  0.85115534     0.30400
H1817       H  0.32062740  0.68914962  0.88839574     0.33700
H1818       H  0.34258553  0.70119099  0.87056045     0.30400
H1819       H  0.36692478  0.54785791  0.86968919     0.38300
H1820       H  0.38777424  0.56102575  0.85173447     0.33700
C1821       C  0.65793091  0.43102832  0.70226406    -0.20000
C1822       C  0.64151821  0.43360771  0.71930093     0.36200
C1823       C  0.64167240  0.46207105  0.72891181    -0.26000
C1824       C  0.65809483  0.48781393  0.72215873     0.02600
C1825       C  0.67479169  0.48543738  0.70543998     0.27400
C1826       C  0.67459459  0.45706698  0.69565758    -0.25100
N1827       N  0.62461449  0.40759186  0.72684934    -0.82500
H1828       H  0.62906291  0.46422154  0.74188509     0.13300
C1829       C  0.65704330  0.51720478  0.73281910     0.02600
N1830       N  0.69150527  0.51195209  0.69839088    -0.81100
H1831       H  0.68730689  0.45548309  0.68270811     0.18100
C1832       C  0.68396586  0.52754194  0.74197201    -0.25900
C1833       C  0.68305328  0.55404304  0.75346851     0.36100
C1834       C  0.65444117  0.57038517  0.75580366    -0.19900
C1835       C  0.62780156  0.56031487  0.74610558    -0.25200
C1836       C  0.62881351  0.53385609  0.73468700     0.27500
H1837       H  0.70557114  0.51449177  0.74040410     0.13200
N1838       N  0.71095976  0.56415902  0.76280419    -0.82500
H1839       H  0.60580042  0.57260813  0.74780612     0.18100
N1840       N  0.60117539  0.52342712  0.72519679    -0.81100
H1841       H  0.72965835  0.54916144  0.75987606     0.33700
H1842       H  0.71694030  0.58599223  0.75739997     0.38200
H1843       H  0.58220708  0.53804037  0.72818827     0.33700
H1844       H  0.60532667  0.52537993  0.71095751     0.30400
H1845       H  0.70268384  0.50632659  0.68592827     0.33700
H1846       H  0.67506942  0.52931692  0.69529883     0.30400
H1847       H  0.64112285  0.39100573  0.73112409     0.38300
H1848       H  0.61234097  0.41418011  0.73876330     0.33700
C1849       C  0.47972423  0.56697907  0.89599196    -0.20000
C1850       C  0.48950452  0.53962235  0.88648177     0.36200
C1851       C  0.51390953  0.54150285  0.87355711    -0.26000
C1852       C  0.52873905  0.56986358  0.87004366     0.02600
C1853       C  0.51928531  0.59712717  0.87944982     0.27400
C1854       C  0.49514881  0.59531206  0.89251289    -0.25100
N1855       N  0.47447736  0.51014531  0.88968797    -0.82500
H1856       H  0.52108744  0.52089466  0.86590861     0.13300
C1857       C  0.55164682  0.57162781  0.85494251     0.02600
N1858       N  0.53289613  0.62682372  0.87486711    -0.81100
H1859       H  0.48763803  0.61645345  0.89949162     0.18100
C1860       C  0.54043990  0.57412841  0.83680378    -0.25900
C1861       C  0.56061607  0.58177368  0.82230959     0.36100
C1862       C  0.59239981  0.58784392  0.82614876    -0.19900
C1863       C  0.60416766  0.58169024  0.84399315    -0.25200
C1864       C  0.58395580  0.57337572  0.85849481     0.27500
H1865       H  0.51566281  0.57153992  0.83402728     0.13200
N1866       N  0.54852629  0.58425439  0.80383373    -0.82500
H1867       H  0.62873596  0.58527219  0.84694187     0.18100
N1868       N  0.59597174  0.56691272  0.87672915    -0.81100
H1869       H  0.53062234  0.60095490  0.80383998     0.33700
H1870       H  0.53877988  0.56273939  0.80021538     0.38200
H1871       H  0.62035684  0.56870482  0.87686786     0.33700
H1872       H  0.58755344  0.58393086  0.88582505     0.30400
H1873       H  0.52231476  0.64476628  0.88248347     0.33700
H1874       H  0.55634569  0.62640739  0.87887931     0.30400
H1875       H  0.47975889  0.50334061  0.90326643     0.38300
H1876       H  0.48368452  0.49287219  0.88101058     0.33700
C1877       C  0.63159791  0.71015692  0.82927240    -0.20000
C1878       C  0.65671092  0.72134263  0.84020574     0.36200
C1879       C  0.65075789  0.74328150  0.85422137    -0.26000
C1880       C  0.62053271  0.75465383  0.85725264     0.02600
C1881       C  0.59562788  0.74456360  0.84601418     0.27400
C1882       C  0.60143008  0.72248744  0.83204099    -0.25100
N1883       N  0.68812828  0.71050188  0.83706974    -0.82500
H1884       H  0.66968545  0.75140556  0.86296236     0.13300
C1885       C  0.61479146  0.77548788  0.87311381     0.02600
N1886       N  0.56451219  0.75631371  0.84913133    -0.81100
H1887       H  0.58210084  0.71415450  0.82370050     0.18100
C1888       C  0.60947895  0.80731668  0.87004010    -0.25900
C1889       C  0.60062065  0.82711725  0.88467074     0.36100
C1890       C  0.59645754  0.81436621  0.90260472    -0.19900
C1891       C  0.60404002  0.78283245  0.90574594    -0.25200
C1892       C  0.61294769  0.76320533  0.89113662     0.27500
H1893       H  0.61141491  0.81647387  0.85608761     0.13200
N1894       N  0.59426406  0.85955242  0.88111967    -0.82500
H1895       H  0.60140937  0.77300869  0.91949237     0.18100
N1896       N  0.61896604  0.73059109  0.89436652    -0.81100
H1897       H  0.59694099  0.86460084  0.86701105     0.33700
H1898       H  0.61127658  0.87250003  0.88807301     0.38200
H1899       H  0.61677893  0.72531643  0.90844440     0.33700
H1900       H  0.60164455  0.71787470  0.88746977     0.30400
H1901       H  0.54885539  0.74667178  0.83957529     0.33700
H1902       H  0.55737264  0.74877351  0.86222933     0.30400
H1903       H  0.69485629  0.71816751  0.82392334     0.38300
H1904       H  0.70361605  0.72071125  0.84651839     0.33700
C1905       C  0.64456875  0.57288381  0.47218887    -0.20000
C1906       C  0.65878913  0.54374593  0.47618345     0.36200
C1907       C  0.68551114  0.54273284  0.48749137    -0.26000
C1908       C  0.69822740  0.57007554  0.49495254     0.02600
C1909       C  0.68358122  0.59903115  0.49152058     0.27400
C1910       C  0.65680248  0.60014934  0.48021508    -0.25100
N1911       N  0.64618377  0.51530150  0.46871514    -0.82500
H1912       H  0.69690947  0.52055996  0.49022685     0.13300
C1913       C  0.72791081  0.56805137  0.50547432     0.02600
N1914       N  0.69625857  0.62715858  0.49933650    -0.81100
H1915       H  0.64601007  0.62251777  0.47722155     0.18100
C1916       C  0.75478194  0.58165189  0.49799889    -0.25900
C1917       C  0.78386699  0.57908655  0.50694859     0.36100
C1918       C  0.78618570  0.56206500  0.52378063    -0.19900
C1919       C  0.75894654  0.54860970  0.53123772    -0.25200
C1920       C  0.72986056  0.55156887  0.52230271     0.27500
H1921       H  0.75304235  0.59412576  0.48496890     0.13200
N1922       N  0.81094208  0.59321750  0.49870287    -0.82500
H1923       H  0.76023656  0.53578213  0.54415150     0.18100
N1924       N  0.70226714  0.53790775  0.53020726    -0.81100
H1925       H  0.80557315  0.60234597  0.48565940     0.33700
H1926       H  0.81704091  0.61235665  0.50696534     0.38200
H1927       H  0.70764640  0.52644315  0.54260173     0.33700
H1928       H  0.68695329  0.55613089  0.53360319     0.30400
H1929       H  0.68289737  0.64653328  0.49537562     0.33700
H1930       H  0.69441707  0.62545077  0.51375464     0.30400
H1931       H  0.62399511  0.51219462  0.47451081     0.38300
H1932       H  0.65966725  0.49608189  0.47277629     0.33700
C1933       C  0.90376416  0.48381045  0.51925223    -0.20000
C1934       C  0.92583355  0.46489543  0.52859635     0.36200
C1935       C  0.94792933  0.44799812  0.51825891    -0.26000
C1936       C  0.94803991  0.44947515  0.49889168     0.02600
C1937       C  0.92512797  0.46712091  0.48950277     0.27400
C1938       C  0.90327153  0.48441696  0.49982543    -0.25100
N1939       N  0.92721890  0.46479441  0.54851957    -0.82500
H1940       H  0.96562897  0.43422226  0.52529326     0.13300
C1941       C  0.97281368  0.43295201  0.48860644     0.02600
N1942       N  0.92476375  0.46802532  0.46958270    -0.81100
H1943       H  0.88663362  0.49941058  0.49275920     0.18100
C1944       C  0.96567196  0.40466232  0.47996803    -0.25900
C1945       C  0.98833077  0.38851567  0.46966488     0.36100
C1946       C  0.01888213  0.40085538  0.46827383    -0.19900
C1947       C  0.02596044  0.42930075  0.47693630    -0.25200
C1948       C  0.00312713  0.44551067  0.48716323     0.27500
H1949       H  0.94216739  0.39546389  0.48104764     0.13200
N1950       N  0.98010971  0.36024901  0.46007220    -0.82500
H1951       H  0.04926345  0.43890262  0.47563935     0.18100
N1952       N  0.01042847  0.47470192  0.49598659    -0.81100
H1953       H  0.95681612  0.35432693  0.46267635     0.33700
H1954       H  0.98167123  0.36468874  0.44585341     0.38200
H1955       H  0.03381571  0.48058021  0.49368805     0.33700
H1956       H  0.99691171  0.49205691  0.48963332     0.30400
H1957       H  0.90626147  0.48192877  0.46484311     0.33700
H1958       H  0.94536573  0.47882906  0.46522974     0.30400
H1959       H  0.90689006  0.45403015  0.55334761     0.38300
H1960       H  0.94593263  0.45110487  0.55315718     0.33700
C1961       C  0.15401295  0.48479373  0.69451001    -0.20000
C1962       C  0.16530224  0.45563713  0.68797587     0.36200
C1963       C  0.16349450  0.42928029  0.69955128    -0.26000
C1964       C  0.15054811  0.43152856  0.71732332     0.02600
C1965       C  0.13892044  0.46026507  0.72376865     0.27400
C1966       C  0.14078777  0.48658298  0.71233714    -0.25100
N1967       N  0.17838540  0.45275974  0.66969881    -0.82500
H1968       H  0.17229122  0.40691347  0.69477120     0.13300
C1969       C  0.14978871  0.40386523  0.72942892     0.02600
N1970       N  0.12552239  0.46256867  0.74200388    -0.81100
H1971       H  0.13214120  0.50872314  0.71753974     0.18100
C1972       C  0.17117082  0.40187963  0.74404323    -0.25900
C1973       C  0.17017884  0.37706342  0.75670974     0.36100
C1974       C  0.14656593  0.35405726  0.75490894    -0.19900
C1975       C  0.12547019  0.35605977  0.73993856    -0.25200
C1976       C  0.12690145  0.38073191  0.72717129     0.27500
H1977       H  0.18869163  0.41992618  0.74556427     0.13200
N1978       N  0.19280280  0.37562584  0.77144563    -0.82500
H1979       H  0.10758853  0.33845146  0.73821509     0.18100
N1980       N  0.10502993  0.38265261  0.71206278    -0.81100
H1981       H  0.20683249  0.39556865  0.77149427     0.33700
H1982       H  0.20780606  0.35690347  0.76857098     0.38200
H1983       H  0.08979608  0.36361352  0.71226305     0.33700
H1984       H  0.09129441  0.40260692  0.71409770     0.30400
H1985       H  0.11835389  0.48547231  0.74475694     0.33700
H1986       H  0.10535305  0.44884576  0.74217951     0.30400
H1987       H  0.16039504  0.45685697  0.66020057     0.38300
H1988       H  0.18623558  0.42991187  0.66732284     0.33700
C1989       C  0.30609130  0.72765940  0.73936468    -0.20000
C1990       C  0.32448104  0.70415333  0.73065814     0.36200
C1991       C  0.30964420  0.67977116  0.72113101    -0.26000
C1992       C  0.27705405  0.67825114  0.72002594     0.02600
C1993       C  0.25875299  0.70263979  0.72752141     0.27400
C1994       C  0.27342524  0.72696595  0.73720408    -0.25100
N1995       N  0.35802825  0.70416150  0.73207093    -0.82500
H1996       H  0.32355606  0.66101934  0.71525624     0.13300
C1997       C  0.26223017  0.65023604  0.71185285     0.02600
N1998       N  0.22529673  0.70228909  0.72548828    -0.81100
H1999       H  0.25914364  0.74506432  0.74346294     0.18100
C2000       C  0.24108240  0.63316998  0.72265409    -0.25900
C2001       C  0.22373399  0.60870947  0.71492572     0.36100
C2002       C  0.22788273  0.60108864  0.69605028    -0.19900
C2003       C  0.25143431  0.61591085  0.68582117    -0.25200
C2004       C  0.26839823  0.64081884  0.69346637     0.27500
H2005       H  0.23728777  0.63976879  0.73698979     0.13200
N2006       N  0.20094263  0.59245533  0.72589539    -0.82500
H2007       H  0.25455189  0.61010534  0.67131301     0.18100
N2008       N  0.29053128  0.65763581  0.68233844    -0.81100
H2009       H  0.20052819  0.60117583  0.73946193     0.33700
H2010       H  0.20805709  0.56915514  0.72678011     0.38200
H2011       H  0.29231658  0.64770215  0.66915108     0.33700
H2012       H  0.28179660  0.68028639  0.68049241     0.30400
H2013       H  0.21524171  0.72182150  0.73186628     0.33700
H2014       H  0.22028245  0.70409362  0.71133620     0.30400
H2015       H  0.36376772  0.69819439  0.74571170     0.38300
H2016       H  0.36779893  0.68674873  0.72368877     0.33700
C2017       C  0.08851044  0.54344351  0.63104734    -0.20000
C2018       C  0.08968310  0.52209154  0.61605848     0.36200
C2019       C  0.06359898  0.51945095  0.60416949    -0.26000
C2020       C  0.03668701  0.53761624  0.60712093     0.02600
C2021       C  0.03590095  0.55941300  0.62168963     0.27400
C2022       C  0.06157339  0.56190762  0.63352389    -0.25100
N2023       N  0.11694274  0.50301933  0.61306469    -0.82500
H2024       H  0.06396108  0.50285144  0.59282739     0.13300
C2025       C  0.00851121  0.53355302  0.59555619     0.02600
N2026       N  0.00883446  0.57897723  0.62437809    -0.81100
H2027       H  0.06056599  0.57892115  0.64462991     0.18100
C2028       C  0.98136230  0.52255512  0.60414970    -0.25900
C2029       C  0.95210982  0.52517852  0.59551118     0.36100
C2030       C  0.95014271  0.53845881  0.57758390    -0.19900
C2031       C  0.97783093  0.54743738  0.56849920    -0.25200
C2032       C  0.00702342  0.54532446  0.57738289     0.27500
H2033       H  0.98283500  0.51367003  0.61819320     0.13200
N2034       N  0.92443924  0.51566525  0.60527666    -0.82500
H2035       H  0.97663986  0.55691285  0.55459434     0.18100
N2036       N  0.03492301  0.55599923  0.56830646    -0.81100
H2037       H  0.93021642  0.50565868  0.61805021     0.33700
H2038       H  0.91148326  0.53581992  0.60824620     0.38200
H2039       H  0.02980436  0.56373811  0.55487360     0.33700
H2040       H  0.04314571  0.57536502  0.57560998     0.30400
H2041       H  0.01180182  0.59359625  0.63585812     0.33700
H2042       H  0.00683946  0.59352223  0.61279986     0.30400
H2043       H  0.11894448  0.48781051  0.62434928     0.38300
H2044       H  0.11409319  0.48905042  0.60130266     0.33700
C2045       C  0.86034459  0.91874097  0.69595486    -0.20000
C2046       C  0.85076609  0.94634774  0.68674701     0.36200
C2047       C  0.85260051  0.97517390  0.69607206    -0.26000
C2048       C  0.86459684  0.97706085  0.71414482     0.02600
C2049       C  0.87611132  0.94983024  0.72281800     0.27400
C2050       C  0.87359345  0.92101218  0.71372889    -0.25100
N2051       N  0.83929214  0.94511075  0.66802436    -0.82500
H2052       H  0.84395785  0.99615286  0.68939073     0.13300
C2053       C  0.86253329  0.00692984  0.72455962     0.02600
N2054       N  0.88990926  0.95155108  0.74098031    -0.81100
H2055       H  0.88154536  0.90010338  0.72077268     0.18100
C2056       C  0.84682276  0.00697932  0.74160290    -0.25900
C2057       C  0.84469256  0.03405028  0.75241314     0.36100
C2058       C  0.85746705  0.06222106  0.74569163    -0.19900
C2059       C  0.87308537  0.06236447  0.72856994    -0.25200
C2060       C  0.87583349  0.03489734  0.71791935     0.27500
H2061       H  0.83644622  0.98554426  0.74661978     0.13200
N2062       N  0.83032416  0.03278954  0.77042716    -0.82500
H2063       H  0.88307757  0.08393758  0.72349595     0.18100
N2064       N  0.89225298  0.03521741  0.70054380    -0.81100
H2065       H  0.82206086  0.01033716  0.77321952     0.33700
H2066       H  0.84771282  0.03732647  0.78026447     0.38200
H2067       H  0.90047151  0.05764343  0.69763297     0.33700
H2068       H  0.91194286  0.02085773  0.70194697     0.30400
H2069       H  0.89696119  0.92942243  0.74549782     0.33700
H2070       H  0.91015394  0.96503462  0.73992369     0.30400
H2071       H  0.85776131  0.93766119  0.65959905     0.38300
H2072       H  0.83304389  0.96742051  0.66339686     0.33700
C2073       C  0.69214949  0.70052159  0.76078981    -0.20000
C2074       C  0.68042493  0.73085716  0.75732234     0.36200
C2075       C  0.69836794  0.75169244  0.74681095    -0.26000
C2076       C  0.72762026  0.74268336  0.73991234     0.02600
C2077       C  0.73902536  0.71224288  0.74306100     0.27400
C2078       C  0.72129443  0.69151886  0.75370565    -0.25100
N2079       N  0.65084030  0.74060625  0.76488578    -0.82500
H2080       H  0.68989853  0.77519581  0.74429024     0.13300
C2081       C  0.74671280  0.76545117  0.72974752     0.02600
N2082       N  0.76851025  0.70257896  0.73534483    -0.81100
H2083       H  0.72999863  0.66810897  0.75626404     0.18100
C2084       C  0.77466529  0.77570475  0.73775891    -0.25900
C2085       C  0.79544001  0.79450464  0.72778119     0.36100
C2086       C  0.78801266  0.80294430  0.70935411    -0.19900
C2087       C  0.75890941  0.79433502  0.70186230    -0.25200
C2088       C  0.73826013  0.77536919  0.71185181     0.27500
H2089       H  0.78061389  0.76825572  0.75168527     0.13200
N2090       N  0.82426943  0.80443860  0.73613874    -0.82500
H2091       H  0.75306095  0.80071925  0.68774563     0.18100
N2092       N  0.70941859  0.76507373  0.70365492    -0.81100
H2093       H  0.82622137  0.79584728  0.74967906     0.33700
H2094       H  0.82348165  0.82874903  0.73718274     0.38200
H2095       H  0.70670539  0.77449898  0.69038447     0.36900
H2096       H  0.71085329  0.74084484  0.70200039     0.30400
H2097       H  0.77354181  0.67948345  0.73899080     0.33700
H2098       H  0.76627426  0.70297220  0.72090288     0.30400
H2099       H  0.65296864  0.74069699  0.77932644     0.38300
H2100       H  0.64566387  0.76355829  0.76095592     0.33700
C2101       C  0.84778738  0.74881633  0.64909728    -0.20000
C2102       C  0.87543216  0.73582681  0.64170946     0.36200
C2103       C  0.87370859  0.70830822  0.63122840    -0.26000
C2104       C  0.84486495  0.69401534  0.62756688     0.02600
C2105       C  0.81741836  0.70607428  0.63577589     0.27400
C2106       C  0.81915926  0.73354698  0.64644231    -0.25100
N2107       N  0.90488297  0.75146205  0.64408756    -0.82500
H2108       H  0.89478334  0.69874958  0.62506236     0.13300
C2109       C  0.84378827  0.66875457  0.61348264     0.02600
N2110       N  0.78787397  0.69099222  0.63278532    -0.81100
H2111       H  0.79806401  0.74350374  0.65235492     0.18100
C2112       C  0.83229365  0.63908762  0.61801526    -0.25900
C2113       C  0.83302677  0.61446314  0.60501894     0.36100
C2114       C  0.84639553  0.61957424  0.58729604    -0.19900
C2115       C  0.85639018  0.64983216  0.58266686    -0.25200
C2116       C  0.85496368  0.67439386  0.59543566     0.27500
H2117       H  0.82322356  0.63502983  0.63182098     0.13200
N2118       N  0.82075325  0.58439511  0.60993021    -0.82500
H2119       H  0.86600150  0.65443208  0.56906042     0.18100
N2120       N  0.86519347  0.70512201  0.59021473    -0.81100
H2121       H  0.81263884  0.58448306  0.62359262     0.33700
H2122       H  0.80120350  0.58041277  0.60153617     0.38200
H2123       H  0.87306700  0.70535261  0.57651447     0.33700
H2124       H  0.84572646  0.71998280  0.59077230     0.30400
H2125       H  0.77007326  0.70265366  0.63997375     0.33700
H2126       H  0.78250681  0.69280934  0.61869715     0.30400
H2127       H  0.90349328  0.77284265  0.63713238     0.38300
H2128       H  0.92291685  0.73881692  0.63775629     0.33700
C2129       C  0.20454354  0.83801010  0.51501528    -0.20000
C2130       C  0.20716777  0.82702918  0.49658071     0.36200
C2131       C  0.23638982  0.82815700  0.48764375    -0.26000
C2132       C  0.26268643  0.84024927  0.49671228     0.02600
C2133       C  0.26039772  0.85023090  0.51521547     0.27400
C2134       C  0.23137471  0.84903933  0.52418175    -0.25100
N2135       N  0.18014204  0.81582988  0.48679944    -0.82500
H2136       H  0.23849063  0.82064957  0.47334545     0.13300
C2137       C  0.29187153  0.84499400  0.48622658     0.02600
N2138       N  0.28746441  0.86218302  0.52464698    -0.81100
H2139       H  0.22969048  0.85699718  0.53841009     0.18100
C2140       C  0.29792267  0.87463487  0.47897767    -0.25900
C2141       C  0.32514782  0.88051378  0.46870091     0.36100
C2142       C  0.34715266  0.85609341  0.46590020    -0.19900
C2143       C  0.34094564  0.82641346  0.47348726    -0.25200
C2144       C  0.31351858  0.82065180  0.48361162     0.27500
H2145       H  0.28103732  0.89320669  0.48120398     0.13200
N2146       N  0.33042331  0.91123722  0.46134967    -0.82500
H2147       H  0.35745057  0.80747315  0.47144907     0.18100
N2148       N  0.30747815  0.79023391  0.49119370    -0.81100
H2149       H  0.31333120  0.92685259  0.46605887     0.33700
H2150       H  0.32751070  0.90990954  0.44697632     0.38200
H2151       H  0.32562893  0.77478999  0.48789207     0.33700
H2152       H  0.30734915  0.79232097  0.50564091     0.30400
H2153       H  0.28176620  0.86894448  0.53815434     0.33700
H2154       H  0.30363671  0.84389473  0.52581550     0.30400
H2155       H  0.16486301  0.83469809  0.48507351     0.38300
H2156       H  0.18627992  0.80830512  0.47347339     0.33700
C2157       C  0.07690314  0.89900451  0.51069331    -0.20000
C2158       C  0.04507204  0.89132473  0.50808407     0.36200
C2159       C  0.02570306  0.91155362  0.49800287    -0.26000
C2160       C  0.03730591  0.93935643  0.49058187     0.02600
C2161       C  0.06900709  0.94726468  0.49326333     0.27400
C2162       C  0.08850547  0.92708841  0.50352253    -0.25100
N2163       N  0.03229861  0.86338475  0.51609507    -0.82500
H2164       H  0.00120936  0.90591006  0.49616574     0.13300
C2165       C  0.01543577  0.96010038  0.48044588     0.02600
N2166       N  0.08122299  0.97554006  0.48542959    -0.81100
H2167       H  0.11285252  0.93299293  0.50568437     0.18100
C2168       C  0.00879510  0.98981502  0.48757933    -0.25900
C2169       C  0.98680667  0.00950037  0.47895881     0.36100
C2170       C  0.97141014  0.99929334  0.46266074    -0.19900
C2171       C  0.97785180  0.96922942  0.45575694    -0.25200
C2172       C  0.99978378  0.94961416  0.46442949     0.27500
H2173       H  0.02046875  0.99742877  0.50012454     0.13200
N2174       N  0.97999389  0.03964646  0.48679593    -0.82500
H2175       H  0.96646582  0.96128473  0.44319825     0.18100
N2176       N  0.00656146  0.91920517  0.45693641    -0.81100
H2177       H  0.99363868  0.04363698  0.49858528     0.33700
H2178       H  0.95671025  0.03939182  0.49122225     0.38200
H2179       H  0.99298764  0.91495070  0.44513823     0.33700
H2180       H  0.02988357  0.91916529  0.45261499     0.30400
H2181       H  0.10493997  0.97790496  0.48866643     0.33700
H2182       H  0.07980473  0.97353482  0.47100849     0.30400
H2183       H  0.03337067  0.86574542  0.53053050     0.38300
H2184       H  0.00867356  0.86111409  0.51273525     0.33700
C2185       C  0.15836914  0.78021921  0.58090367    -0.20000
C2186       C  0.17675290  0.75440993  0.57554909     0.36200
C2187       C  0.18010839  0.72913785  0.58774035    -0.26000
C2188       C  0.16482995  0.72902228  0.60494328     0.02600
C2189       C  0.14782400  0.75560921  0.61070839     0.27400
C2190       C  0.14519230  0.78127649  0.59867601    -0.25100
N2191       N  0.19090162  0.75357542  0.55747993    -0.82500
H2192       H  0.19349132  0.70880778  0.58350410     0.13300
C2193       C  0.16457107  0.69984557  0.61591382     0.02600
N2194       N  0.13189802  0.75571844  0.62825623    -0.81100
H2195       H  0.13072723  0.80106171  0.60256842     0.18100
C2196       C  0.17675133  0.69961695  0.63398767    -0.25900
C2197       C  0.17658275  0.67213572  0.64462281     0.36100
C2198       C  0.16427655  0.64461452  0.63686301    -0.19900
C2199       C  0.15231824  0.64473915  0.61882026    -0.25200
C2200       C  0.15181070  0.67226656  0.60834459     0.27500
H2201       H  0.18648628  0.72085784  0.63972362     0.13200
N2202       N  0.18903097  0.67190795  0.66314425    -0.82500
H2203       H  0.14257806  0.62346209  0.61310855     0.18100
N2204       N  0.13787342  0.67254311  0.59019295    -0.81100
H2205       H  0.19710184  0.69410153  0.66679342     0.33700
H2206       H  0.20852001  0.65709879  0.66321114     0.38200
H2207       H  0.12958365  0.65036297  0.58670303     0.33700
H2208       H  0.11835025  0.68730028  0.59071880     0.30400
H2209       H  0.12038038  0.77701132  0.63035029     0.33700
H2210       H  0.11457625  0.73857119  0.62772668     0.30400
H2211       H  0.20714629  0.77173723  0.55686963     0.38300
H2212       H  0.20345596  0.73281001  0.55563117     0.33700
C2213       C  0.91612179  0.85277035  0.63447462    -0.20000
C2214       C  0.91011017  0.84583319  0.61564429     0.36200
C2215       C  0.93487008  0.84660384  0.60289536    -0.26000
C2216       C  0.96516926  0.85410036  0.60867822     0.02600
C2217       C  0.97088228  0.86259858  0.62721077     0.27400
C2218       C  0.94623897  0.86181814  0.63996585    -0.25100
N2219       N  0.87938523  0.83665719  0.60968886    -0.82500
H2220       H  0.93084308  0.84027376  0.58854280     0.13300
C2221       C  0.99127573  0.85090150  0.59555676     0.02600
N2222       N  0.00185466  0.87113612  0.63305161    -0.81100
H2223       H  0.95074008  0.86738385  0.65438133     0.18100
C2224       C  0.00545074  0.87781425  0.58863541    -0.25900
C2225       C  0.03203166  0.87567765  0.57735789     0.36100
C2226       C  0.04455966  0.84593007  0.57305995    -0.19900
C2227       C  0.02963418  0.81895144  0.57948415    -0.25200
C2228       C  0.00322599  0.82118211  0.59095767     0.27500
H2229       H  0.99596412  0.90050149  0.59229008     0.13200
N2230       N  0.04640554  0.90357018  0.57032146    -0.82500
H2231       H  0.03936888  0.79621194  0.57619664     0.18100
N2232       N  0.98895148  0.79353855  0.59837628    -0.81100
H2233       H  0.04426815  0.90323868  0.55584796     0.33700
H2234       H  0.03446063  0.92339261  0.57491289     0.38200
H2235       H  0.00058241  0.77355399  0.59365773     0.33700
H2236       H  0.99182523  0.79404199  0.61277986     0.30400
H2237       H  0.00201041  0.87702815  0.64712763     0.33700
H2238       H  0.01620018  0.85146800  0.63162188     0.30400
H2239       H  0.87439712  0.81515507  0.61585093     0.38300
H2240       H  0.87896026  0.83294241  0.59536260     0.33700
loop_ 
_geom_bond_atom_site_label_1 
_geom_bond_atom_site_label_2 
_geom_bond_distance 
_geom_bond_site_symmetry_2 
_ccdc_geom_bond_type 
O1           Ni9   1.924       .  S
O1           C11   1.283       .  A
O2           Ni9   1.924       .  S
O2           C12   1.283       .  A
O3           Ni9   1.901       .  S
O3           C13   1.278       .  A
O4           Ni9   1.903       .  S
O4           C14   1.278       .  A
O5          Ni10   1.925       .  S
O5           C14   1.283       .  A
O6          Ni10   1.925       .  S
O6           C13   1.282       .  A
O7          Ni10   1.905       .  S
O7           C12   1.280       .  A
O8          Ni10   1.898       .  S
O8           C11   1.277       .  A
Ni9         Ni10   2.390       .  S
C11        C2226   1.470       .  S
C12        C2129   1.482       .  S
C13        C2185   1.467       .  S
C14        C2157   1.474       .  S
O15         Ni23   1.913       .  S
O15          C25   1.280       .  A
O16         Ni23   1.910       .  S
O16          C26   1.281       .  A
O17         Ni23   1.908       .  S
O17          C27   1.280       .  A
O18         Ni23   1.905       .  S
O18          C28   1.280       .  A
O19         Ni24   1.913       .  S
O19          C28   1.280       .  A
O20         Ni24   1.911       .  S
O20          C27   1.281       .  A
O21         Ni24   1.921       .  S
O21          C26   1.282       .  A
O22         Ni24   1.918       .  S
O22          C25   1.281       .  A
Ni23        Ni24   2.389       .  S
C25        C2101   1.471       .  S
C26        C2045   1.485       .  S
C27        C2086   1.477       .  S
C28        C2213   1.471       .  S
O29         Ni37   1.913       .  S
O29          C39   1.279       .  A
O30         Ni37   1.907       .  S
O30          C40   1.280       .  A
O31         Ni37   1.894       .  S
O31          C41   1.277       .  A
O32         Ni37   1.897       .  S
O32          C42   1.279       .  A
O33         Ni38   1.926       .  S
O33          C42   1.283       .  A
O34         Ni38   1.926       .  S
O34          C41   1.284       .  A
O35         Ni38   1.920       .  S
O35          C40   1.282       .  A
O36         Ni38   1.912       .  S
O36          C39   1.279       .  A
Ni37        Ni38   2.388       .  S
C39        C2198   1.463       .  S
C40        C1961   1.484       .  S
C41        C2002   1.472       .  S
C42        C2017   1.484       .  S
O43         Ni51   1.916       .  S
O43          C53   1.282       .  A
O44         Ni51   1.912       .  S
O44          C54   1.280       .  A
O45         Ni51   1.906       .  S
O45          C55   1.281       .  A
O46         Ni51   1.902       .  S
O46          C56   1.278       .  A
O47         Ni52   1.919       .  S
O47          C56   1.281       .  A
O48         Ni52   1.924       .  S
O48          C55   1.282       .  A
O49         Ni52   1.921       .  S
O49          C54   1.283       .  A
O50         Ni52   1.912       .  S
O50          C53   1.280       .  A
Ni51        Ni52   2.385       .  S
C53        C2030   1.483       .  S
C54        C1918   1.491       .  S
C55        C2114   1.491       .  S
C56        C1933   1.467       .  S
O57         Ni65   1.915       .  S
O57          C67   1.282       .  A
O58         Ni65   1.915       .  S
O58          C68   1.282       .  A
O59         Ni65   1.900       .  S
O59          C69   1.279       .  A
O60         Ni65   1.901       .  S
O60          C70   1.277       .  A
O61         Ni66   1.914       .  S
O61          C70   1.281       .  A
O62         Ni66   1.917       .  S
O62          C69   1.282       .  A
O63         Ni66   1.910       .  S
O63          C68   1.279       .  A
O64         Ni66   1.910       .  S
O64          C67   1.280       .  A
Ni65        Ni66   2.388       .  S
C67        C1877   1.481       .  S
C68        C1834   1.482       .  S
C69        C1862   1.476       .  S
C70        C2073   1.467       .  S
O71         Ni79   1.914       .  S
O71          C81   1.282       .  A
O72         Ni79   1.911       .  S
O72          C82   1.280       .  A
O73         Ni79   1.904       .  S
O73          C83   1.278       .  A
O74         Ni79   1.904       .  S
O74          C84   1.280       .  A
O75         Ni80   1.913       .  S
O75          C84   1.280       .  A
O76         Ni80   1.914       .  S
O76          C83   1.282       .  A
O77         Ni80   1.906       .  S
O77          C82   1.279       .  A
O78         Ni80   1.905       .  S
O78          C81   1.279       .  A
Ni79        Ni80   2.388       .  S
C81        C1849   1.482       .  S
C82        C1737   1.471       .  S
C83        C1778   1.477       .  S
C84        C1793   1.470       .  S
O85         Ni93   1.914       .  S
O85          C95   1.282       .  A
O86         Ni93   1.915       .  S
O86          C96   1.282       .  A
O87         Ni93   1.907       .  S
O87          C97   1.281       .  A
O88         Ni93   1.903       .  S
O88          C98   1.278       .  A
O89         Ni94   1.922       .  S
O89          C98   1.284       .  A
O90         Ni94   1.928       .  S
O90          C97   1.283       .  A
O91         Ni94   1.909       .  S
O91          C96   1.280       .  A
O92         Ni94   1.903       .  S
O92          C95   1.278       .  A
Ni93        Ni94   2.384       .  S
C95        C1806   1.476       .  S
C96        C1681   1.482       .  S
C97        C1709   1.493       .  S
C98        C1989   1.487       .  S
O99        Ni107   1.921       .  S
O99         C109   1.283       .  A
O100       Ni107   1.922       .  S
O100        C110   1.282       .  A
O101       Ni107   1.901       .  S
O101        C111   1.277       .  A
O102       Ni107   1.903       .  S
O102        C112   1.280       .  A
O103       Ni108   1.915       .  S
O103        C112   1.281       .  A
O104       Ni108   1.914       .  S
O104        C111   1.281       .  A
O105       Ni108   1.909       .  S
O105        C110   1.280       .  A
O106       Ni108   1.912       .  S
O106        C109   1.281       .  A
Ni107      Ni108   2.388       .  S
C109       C1722   1.486       .  S
C110       C1625   1.477       .  S
C111       C1653   1.463       .  S
C112       C1890   1.479       .  S
O113       Ni121   1.905       .  S
O113        C123   1.279       .  A
O114       Ni121   1.901       .  S
O114        C124   1.279       .  A
O115       Ni121   1.902       .  S
O115        C125   1.279       .  A
O116       Ni121   1.904       .  S
O116        C126   1.279       .  A
O117       Ni122   1.915       .  S
O117        C126   1.280       .  A
O118       Ni122   1.919       .  S
O118        C125   1.282       .  A
O119       Ni122   1.919       .  S
O119        C124   1.282       .  A
O120       Ni122   1.914       .  S
O120        C123   1.282       .  A
Ni121      Ni122   2.390       .  S
C123       C1610   1.473       .  S
C124       C1554   1.476       .  S
C125       C1582   1.479       .  S
C126       C1765   1.465       .  S
O127       Ni135   1.916       .  S
O127        C137   1.281       .  A
O128       Ni135   1.909       .  S
O128        C138   1.280       .  A
O129       Ni135   1.898       .  S
O129        C139   1.278       .  A
O130       Ni135   1.897       .  S
O130        C140   1.278       .  A
O131       Ni136   1.916       .  S
O131        C140   1.281       .  A
O132       Ni136   1.912       .  S
O132        C139   1.281       .  A
O133       Ni136   1.915       .  S
O133        C138   1.282       .  A
O134       Ni136   1.913       .  S
O134        C137   1.281       .  A
Ni135      Ni136   2.389       .  S
C137       C1513   1.477       .  S
C138       C1470   1.483       .  S
C139       C1498   1.466       .  S
C140       C1597   1.472       .  S
O141       Ni149   1.920       .  S
O141        C151   1.282       .  A
O142       Ni149   1.919       .  S
O142        C152   1.282       .  A
O143       Ni149   1.900       .  S
O143        C153   1.278       .  A
O144       Ni149   1.900       .  S
O144        C154   1.278       .  A
O145       Ni150   1.933       .  S
O145        C154   1.285       .  A
O146       Ni150   1.929       .  S
O146        C153   1.284       .  A
O147       Ni150   1.909       .  S
O147        C152   1.281       .  A
O148       Ni150   1.903       .  S
O148        C151   1.278       .  A
Ni149      Ni150   2.386       .  S
C151       C1569   1.469       .  S
C152       C1373   1.489       .  S
C153       C1401   1.476       .  S
C154       C1442   1.490       .  S
O155       Ni163   1.921       .  S
O155        C165   1.282       .  A
O156       Ni163   1.914       .  S
O156        C166   1.281       .  A
O157       Ni163   1.902       .  S
O157        C167   1.278       .  A
O158       Ni163   1.901       .  S
O158        C168   1.278       .  A
O159       Ni164   1.918       .  S
O159        C168   1.281       .  A
O160       Ni164   1.923       .  S
O160        C167   1.283       .  A
O161       Ni164   1.918       .  S
O161        C166   1.281       .  A
O162       Ni164   1.916       .  S
O162        C165   1.282       .  A
Ni163      Ni164   2.385       .  S
C165       C1429   1.491       .  S
C166       C1358   1.481       .  S
C167       C1526   1.486       .  S
C168       C1666   1.467   1_545  S
O169       Ni177   1.923       .  S
O169        C179   1.283       .  A
O170       Ni177   1.925       .  S
O170        C180   1.282       .  A
O171       Ni177   1.911       .  S
O171        C181   1.281       .  A
O172       Ni177   1.913       .  S
O172        C182   1.280       .  A
O173       Ni178   1.916       .  S
O173        C182   1.282       .  A
O174       Ni178   1.917       .  S
O174        C181   1.281       .  A
O175       Ni178   1.904       .  S
O175        C180   1.280       .  A
O176       Ni178   1.909       .  S
O176        C179   1.280       .  A
Ni177      Ni178   2.384       .  S
C179       C1330   1.484       .  S
C180       C1261   1.482       .  S
C181       C1302   1.486       .  S
C182       C1414   1.486       .  S
O183       Ni191   1.920       .  S
O183        C193   1.283       .  A
O184       Ni191   1.923       .  S
O184        C194   1.282       .  A
O185       Ni191   1.907       .  S
O185        C195   1.279       .  A
O186       Ni191   1.909       .  S
O186        C196   1.280       .  A
O187       Ni192   1.917       .  S
O187        C196   1.281       .  A
O188       Ni192   1.918       .  S
O188        C195   1.281       .  A
O189       Ni192   1.911       .  S
O189        C194   1.281       .  A
O190       Ni192   1.909       .  S
O190        C193   1.280       .  A
Ni191      Ni192   2.387       .  S
C193       C1289   1.487       .  S
C194       C1218   1.482       .  S
C195       C1946   1.473       .  S
C196       C1233   1.473       .  S
O197       Ni205   1.914       .  S
O197        C207   1.281       .  A
O198       Ni205   1.910       .  S
O198        C208   1.280       .  A
O199       Ni205   1.904       .  S
O199        C209   1.279       .  A
O200       Ni205   1.902       .  S
O200        C210   1.278       .  A
O201       Ni206   1.912       .  S
O201        C210   1.282       .  A
O202       Ni206   1.919       .  S
O202        C209   1.282       .  A
O203       Ni206   1.914       .  S
O203        C208   1.281       .  A
O204       Ni206   1.913       .  S
O204        C207   1.281       .  A
Ni205      Ni206   2.387       .  S
C207       C1246   1.484       .  S
C208       C1162   1.476       .  S
C209       C1190   1.475       .  S
C210       C1485   1.477       .  S
O211       Ni219   1.912       .  S
O211        C221   1.281       .  A
O212       Ni219   1.919       .  S
O212        C222   1.282       .  A
O213       Ni219   1.910       .  S
O213        C223   1.280       .  A
O214       Ni219   1.910       .  S
O214        C224   1.280       .  A
O215       Ni220   1.924       .  S
O215        C224   1.283       .  A
O216       Ni220   1.919       .  S
O216        C223   1.283       .  A
O217       Ni220   1.922       .  S
O217        C222   1.282       .  A
O218       Ni220   1.918       .  S
O218        C221   1.281       .  A
Ni219      Ni220   2.383       .  S
C221       C1177   1.478       .  S
C222       C1134   1.492       .  S
C223       C2170   1.485   1_545  S
C224       C1317   1.493       .  S
O225       Ni233   1.910       .  S
O225        C235   1.280       .  A
O226       Ni233   1.907       .  S
O226        C236   1.279       .  A
O227       Ni233   1.910       .  S
O227        C237   1.281       .  A
O228       Ni233   1.909       .  S
O228        C238   1.280       .  A
O229       Ni234   1.913       .  S
O229        C238   1.279       .  A
O230       Ni234   1.915       .  S
O230        C237   1.281       .  A
O231       Ni234   1.917       .  S
O231        C236   1.282       .  A
O232       Ni234   1.907       .  S
O232        C235   1.280       .  A
Ni233      Ni234   2.388       .  S
C235       C1093   1.468       .  S
C236       C1821   1.488       .  S
C237       C1065   1.485       .  S
C238       C1037   1.464       .  S
O239       Ni247   1.921       .  S
O239        C249   1.282       .  A
O240       Ni247   1.920       .  S
O240        C250   1.283       .  A
O241       Ni247   1.904       .  S
O241        C251   1.279       .  A
O242       Ni247   1.903       .  S
O242        C252   1.279       .  A
O243       Ni248   1.920       .  S
O243        C252   1.282       .  A
O244       Ni248   1.923       .  S
O244        C251   1.282       .  A
O245       Ni248   1.917       .  S
O245        C250   1.281       .  A
O246       Ni248   1.909       .  S
O246        C249   1.280       .  A
Ni247      Ni248   2.384       .  S
C249       C1078   1.487       .  S
C250       C1205   1.493       .  S
C251        C994   1.483       .  S
C252       C1022   1.474       .  S
O253       Ni261   1.915       .  S
O253        C263   1.281       .  A
O254       Ni261   1.912       .  S
O254        C264   1.280       .  A
O255       Ni261   1.909       .  S
O255        C265   1.280       .  A
O256       Ni261   1.909       .  S
O256        C266   1.279       .  A
O257       Ni262   1.922       .  S
O257        C266   1.282       .  A
O258       Ni262   1.925       .  S
O258        C265   1.283       .  A
O259       Ni262   1.914       .  S
O259        C264   1.281       .  A
O260       Ni262   1.907       .  S
O260        C263   1.280       .  A
Ni261      Ni262   2.388       .  S
C263       C1009   1.470       .  S
C264       C1694   1.489       .  S
C265        C953   1.483       .  S
C266        C925   1.471       .  S
O267       Ni275   1.926       .  S
O267        C277   1.283       .  A
O268       Ni275   1.923       .  S
O268        C278   1.283       .  A
O269       Ni275   1.901       .  S
O269        C279   1.278       .  A
O270       Ni275   1.902       .  S
O270        C280   1.279       .  A
O271       Ni276   1.911       .  S
O271        C280   1.280       .  A
O272       Ni276   1.911       .  S
O272        C279   1.280       .  A
O273       Ni276   1.919       .  S
O273        C278   1.282       .  A
O274       Ni276   1.913       .  S
O274        C277   1.281       .  A
Ni275      Ni276   2.389       .  S
C277        C966   1.486       .  S
C278       C1121   1.486       .  S
C279        C897   1.466       .  S
C280       C1106   1.470       .  S
O281       Ni289   1.914       .  S
O281        C291   1.281       .  A
O282       Ni289   1.916       .  S
O282        C292   1.282       .  A
O283       Ni289   1.909       .  S
O283        C293   1.279       .  A
O284       Ni289   1.911       .  S
O284        C294   1.280       .  A
O285       Ni290   1.924       .  S
O285        C294   1.282       .  A
O286       Ni290   1.920       .  S
O286        C293   1.282       .  A
O287       Ni290   1.910       .  S
O287        C292   1.279       .  A
O288       Ni290   1.908       .  S
O288        C291   1.280       .  A
Ni289      Ni290   2.387       .  S
C291        C869   1.477       .  S
C292       C1974   1.487       .  S
C293        C938   1.470       .  S
C294        C841   1.477       .  S
O295       Ni303   1.910       .  S
O295        C305   1.280       .  A
O296       Ni303   1.910       .  S
O296        C306   1.279       .  A
O297       Ni303   1.909       .  S
O297        C307   1.280       .  A
O298       Ni303   1.907       .  S
O298        C308   1.280       .  A
O299       Ni304   1.907       .  S
O299        C308   1.279       .  A
O300       Ni304   1.909       .  S
O300        C307   1.280       .  A
O301       Ni304   1.919       .  S
O301        C306   1.283       .  A
O302       Ni304   1.923       .  S
O302        C305   1.283       .  A
Ni303      Ni304   2.386       .  S
C305        C854   1.487       .  S
C306       C1541   1.487       .  S
C307        C826   1.477       .  S
C308        C785   1.467       .  S
O309       Ni317   1.920       .  S
O309        C319   1.283       .  A
O310       Ni317   1.922       .  S
O310        C320   1.282       .  A
O311       Ni317   1.898       .  S
O311        C321   1.277       .  A
O312       Ni317   1.900       .  S
O312        C322   1.279       .  A
O313       Ni318   1.932       .  S
O313        C322   1.284       .  A
O314       Ni318   1.927       .  S
O314        C321   1.284       .  A
O315       Ni318   1.905       .  S
O315        C320   1.279       .  A
O316       Ni318   1.904       .  S
O316        C319   1.277       .  A
Ni317      Ni318   2.387       .  S
C319        C813   1.478       .  S
C320       C2058   1.477       .  S
C321       C1050   1.475       .  S
C322        C757   1.487       .  S
O323       Ni331   1.923       .  S
O323        C333   1.284       .  A
O324       Ni331   1.921       .  S
O324        C334   1.283       .  A
O325       Ni331   1.899       .  S
O325        C335   1.279       .  A
O326       Ni331   1.899       .  S
O326        C336   1.278       .  A
O327       Ni332   1.916       .  S
O327        C336   1.282       .  A
O328       Ni332   1.919       .  S
O328        C335   1.281       .  A
O329       Ni332   1.911       .  S
O329        C334   1.280       .  A
O330       Ni332   1.912       .  S
O330        C333   1.280       .  A
Ni331      Ni332   2.385       .  S
C333        C770   1.492   1_455  S
C334       C1345   1.487       .  S
C335        C882   1.475       .  S
C336        C742   1.472   1_455  S
O337       Ni345   1.917       .  S
O337        C347   1.282       .  A
O338       Ni345   1.919       .  S
O338        C348   1.282       .  A
O339       Ni345   1.899       .  S
O339        C349   1.277       .  A
O340       Ni345   1.902       .  S
O340        C350   1.279       .  A
O341       Ni346   1.920       .  S
O341        C350   1.282       .  A
O342       Ni346   1.913       .  S
O342        C349   1.281       .  A
O343       Ni346   1.902       .  S
O343        C348   1.279       .  A
O344       Ni346   1.902       .  S
O344        C347   1.279       .  A
Ni345      Ni346   2.387       .  S
C347        C701   1.483       .  S
C348       C1457   1.478       .  S
C349        C645   1.465       .  S
C350        C673   1.482       .  S
O351       Ni359   1.923       .  S
O351        C361   1.282       .  A
O352       Ni359   1.923       .  S
O352        C362   1.283       .  A
O353       Ni359   1.910       .  S
O353        C363   1.280       .  A
O354       Ni359   1.913       .  S
O354        C364   1.281       .  A
O355       Ni360   1.916       .  S
O355        C364   1.281       .  A
O356       Ni360   1.916       .  S
O356        C363   1.281       .  A
O357       Ni360   1.908       .  S
O357        C362   1.279       .  A
O358       Ni360   1.908       .  S
O358        C361   1.281       .  A
Ni359      Ni360   2.385       .  S
C361        C686   1.490       .  S
C362       C1905   1.483       .  S
C363        C630   1.481       .  S
C364        C981   1.480       .  S
O365       Ni373   1.912       .  S
O365        C375   1.280       .  A
O366       Ni373   1.913       .  S
O366        C376   1.281       .  A
O367       Ni373   1.900       .  S
O367        C377   1.280       .  A
O368       Ni373   1.901       .  S
O368        C378   1.277       .  A
O369       Ni374   1.911       .  S
O369        C378   1.281       .  A
O370       Ni374   1.915       .  S
O370        C377   1.280       .  A
O371       Ni374   1.919       .  S
O371        C376   1.281       .  A
O372       Ni374   1.919       .  S
O372        C375   1.282       .  A
Ni373      Ni374   2.383       .  S
C375        C589   1.490       .  S
C376       C2142   1.490       .  S
C377        C714   1.481       .  S
C378        C910   1.477       .  S
O379       Ni387   1.918       .  S
O379        C389   1.283       .  A
O380       Ni387   1.920       .  S
O380        C390   1.282       .  A
O381       Ni387   1.906       .  S
O381        C391   1.278       .  A
O382       Ni387   1.907       .  S
O382        C392   1.279       .  A
O383       Ni388   1.924       .  S
O383        C392   1.283       .  A
O384       Ni388   1.920       .  S
O384        C391   1.283       .  A
O385       Ni388   1.909       .  S
O385        C390   1.280       .  A
O386       Ni388   1.906       .  S
O386        C389   1.278       .  A
Ni387      Ni388   2.386       .  S
C389        C617   1.474       .  S
C390       C1386   1.483       .  S
C391        C574   1.482       .  S
C392        C602   1.482       .  S
O393       Ni401   1.916       .  S
O393        C403   1.281       .  A
O394       Ni401   1.913       .  S
O394        C404   1.281       .  A
O395       Ni401   1.911       .  S
O395        C405   1.281       .  A
O396       Ni401   1.909       .  S
O396        C406   1.280       .  A
O397       Ni402   1.906       .  S
O397        C406   1.279       .  A
O398       Ni402   1.911       .  S
O398        C405   1.280       .  A
O399       Ni402   1.909       .  S
O399        C404   1.281       .  A
O400       Ni402   1.906       .  S
O400        C403   1.280       .  A
Ni401      Ni402   2.388       .  S
C403        C546   1.473       .  S
C404       C1149   1.483       .  S
C405        C518   1.485       .  S
C406        C658   1.465       .  S
O407       Ni415   1.920       .  S
O407        C417   1.282       .  A
O408       Ni415   1.915       .  S
O408        C418   1.281       .  A
O409       Ni415   1.902       .  S
O409        C419   1.280       .  A
O410       Ni415   1.900       .  S
O410        C420   1.277       .  A
O411       Ni416   1.914       .  S
O411        C420   1.281       .  A
O412       Ni416   1.913       .  S
O412        C419   1.280       .  A
O413       Ni416   1.909       .  S
O413        C418   1.280       .  A
O414       Ni416   1.907       .  S
O414        C417   1.280       .  A
Ni415      Ni416   2.386       .  S
C417        C505   1.476       .  S
C418       C1638   1.485       .  S
C419        C729   1.480       .  S
C420        C477   1.468       .  S
O421       Ni429   1.913       .  S
O421        C431   1.281       .  A
O422       Ni429   1.911       .  S
O422        C432   1.281       .  A
O423       Ni429   1.897       .  S
O423        C433   1.277       .  A
O424       Ni429   1.895       .  S
O424        C434   1.277       .  A
O425       Ni430   1.920       .  S
O425        C434   1.282       .  A
O426       Ni430   1.916       .  S
O426        C433   1.282       .  A
O427       Ni430   1.907       .  S
O427        C432   1.279       .  A
O428       Ni430   1.904       .  S
O428        C431   1.279       .  A
Ni429      Ni430   2.388       .  S
C431        C449   1.472       .  S
C432       C1750   1.480       .  S
C433        C798   1.475       .  S
C434        C533   1.472       .  S
O435       Ni443   1.913       .  S
O435        C445   1.280       .  A
O436       Ni443   1.914       .  S
O436        C446   1.281       .  A
O437       Ni443   1.903       .  S
O437        C447   1.279       .  A
O438       Ni443   1.910       .  S
O438        C448   1.280       .  A
O439       Ni444   1.914       .  S
O439        C448   1.281       .  A
O440       Ni444   1.914       .  S
O440        C447   1.281       .  A
O441       Ni444   1.912       .  S
O441        C446   1.281       .  A
O442       Ni444   1.906       .  S
O442        C445   1.279       .  A
Ni443      Ni444   2.389       .  S
C445        C490   1.465       .  S
C446       C1274   1.481       .  S
C447        C462   1.478       .  S
C448        C561   1.473       .  S
C449        C450   1.414       .  A
C449        C454   1.403       .  A
C450        C451   1.402   1_455  A
C450        N455   1.438       .  S
C451        C452   1.399       .  A
C451        H456   1.084       .  S
C452        C457   1.467       .  S
C452        C453   1.407       .  A
C453        C454   1.400   1_655  A
C453        N458   1.439       .  S
C454        H459   1.084       .  S
N455        H475   1.046       .  S
N455        H476   1.045       .  S
C457        C460   1.397       .  A
C457        C464   1.406       .  A
N458        H473   1.046       .  S
N458        H474   1.044       .  S
C460        C461   1.399       .  A
C460        H465   1.084       .  S
C461        C462   1.415       .  A
C461        N466   1.438       .  S
C462        C463   1.407       .  A
C463        C464   1.403       .  A
C463        H467   1.083       .  S
C464        N468   1.438       .  S
N466        H469   1.047       .  S
N466        H470   1.045       .  S
N468        H471   1.046       .  S
N468        H472   1.043       .  S
C477        C478   1.415       .  A
C477        C482   1.404       .  A
C478        C479   1.394       .  A
C478        N483   1.433       .  S
C479        C480   1.400       .  A
C479        H484   1.084       .  S
C480        C485   1.470       .  S
C480        C481   1.406       .  A
C481        C482   1.402       .  A
C481        N486   1.437       .  S
C482        H487   1.084       .  S
N483        H503   1.046       .  S
N483        H504   1.043       .  S
C485        C488   1.402       .  A
C485        C492   1.406       .  A
N486        H501   1.045       .  S
N486        H502   1.046       .  S
C488        C489   1.402       .  A
C488        H493   1.084       .  S
C489        C490   1.410       .  A
C489        N494   1.438       .  S
C490        C491   1.403       .  A
C491        C492   1.401       .  A
C491        H495   1.083       .  S
C492        N496   1.437       .  S
N494        H497   1.046       .  S
N494        H498   1.046       .  S
N496        H499   1.046       .  S
N496        H500   1.046       .  S
C505        C506   1.413       .  A
C505        C510   1.406       .  A
C506        C507   1.404       .  A
C506        N511   1.438       .  S
C507        C508   1.401       .  A
C507        H512   1.084       .  S
C508        C513   1.473   1_655  S
C508        C509   1.405       .  A
C509        C510   1.403       .  A
C509        N514   1.438       .  S
C510        H515   1.084       .  S
N511        H531   1.046       .  S
N511        H532   1.045       .  S
C513        C516   1.398       .  A
C513        C520   1.406       .  A
N514        H529   1.046       .  S
N514        H530   1.045       .  S
C516        C517   1.402       .  A
C516        H521   1.084       .  S
C517        C518   1.416       .  A
C517        N522   1.432       .  S
C518        C519   1.408       .  A
C519        C520   1.402       .  A
C519        H523   1.083       .  S
C520        N524   1.438   1_455  S
N522        H525   1.046       .  S
N522        H526   1.046       .  S
N524        H527   1.046       .  S
N524        H528   1.046       .  S
C533        C534   1.413       .  A
C533        C538   1.405       .  A
C534        C535   1.398       .  A
C534        N539   1.439       .  S
C535        C536   1.399       .  A
C535        H540   1.084       .  S
C536        C541   1.473       .  S
C536        C537   1.408       .  A
C537        C538   1.405       .  A
C537        N542   1.437       .  S
C538        H543   1.084       .  S
N539        H559   1.044       .  S
N539        H560   1.047       .  S
C541        C544   1.402       .  A
C541        C548   1.407       .  A
N542        H557   1.046       .  S
N542        H558   1.045       .  S
C544        C545   1.402       .  A
C544        H549   1.084       .  S
C545        C546   1.410       .  A
C545        N550   1.432       .  S
C546        C547   1.404       .  A
C547        C548   1.400       .  A
C547        H551   1.084       .  S
C548        N552   1.438       .  S
N550        H553   1.046       .  S
N550        H554   1.045       .  S
N552        H555   1.046       .  S
N552        H556   1.045       .  S
C561        C562   1.414       .  A
C561        C566   1.403       .  A
C562        C563   1.402       .  A
C562        N567   1.438       .  S
C563        C564   1.398       .  A
C563        H568   1.084       .  S
C564        C569   1.473       .  S
C564        C565   1.409       .  A
C565        C566   1.405       .  A
C565        N570   1.438       .  S
C566        H571   1.084       .  S
N567        H587   1.045       .  S
N567        H588   1.046       .  S
C569        C572   1.397       .  A
C569        C576   1.409       .  A
N570        H585   1.046       .  S
N570        H586   1.044       .  S
C572        C573   1.403       .  A
C572        H577   1.084       .  S
C573        C574   1.419       .  A
C573        N578   1.438       .  S
C574        C575   1.405       .  A
C575        C576   1.405       .  A
C575        H579   1.084       .  S
C576        N580   1.439       .  S
N578        H581   1.046       .  S
N578        H582   1.045       .  S
N580        H583   1.045       .  S
N580        H584   1.044       .  S
C589        C590   1.418       .  A
C589        C594   1.409       .  A
C590        C591   1.403       .  A
C590        N595   1.438       .  S
C591        C592   1.401       .  A
C591        H596   1.084       .  S
C592        C597   1.484       .  S
C592        C593   1.408       .  A
C593        C594   1.406       .  A
C593        N598   1.437       .  S
C594        H599   1.083       .  S
N595        H615   1.046       .  S
N595        H616   1.046       .  S
C597        C600   1.402       .  A
C597        C604   1.410       .  A
N598        H613   1.045       .  S
N598        H614   1.046       .  S
C600        C601   1.404       .  A
C600        H605   1.084       .  S
C601        C602   1.414       .  A
C601        N606   1.438       .  S
C602        C603   1.405       .  A
C603        C604   1.406       .  A
C603        H607   1.083       .  S
C604        N608   1.437       .  S
N606        H609   1.046       .  S
N606        H610   1.045       .  S
N608        H611   1.045       .  S
N608        H612   1.046       .  S
C617        C618   1.415       .  A
C617        C622   1.402       .  A
C618        C619   1.406       .  A
C618        N623   1.438       .  S
C619        C620   1.399       .  A
C619        H624   1.084       .  S
C620        C625   1.472       .  S
C620        C621   1.408       .  A
C621        C622   1.400       .  A
C621        N626   1.438       .  S
C622        H627   1.084       .  S
N623        H643   1.047       .  S
N623        H644   1.045       .  S
C625        C628   1.399       .  A
C625        C632   1.406       .  A
N626        H641   1.046       .  S
N626        H642   1.045       .  S
C628        C629   1.403       .  A
C628        H633   1.084       .  S
C629        C630   1.415       .  A
C629        N634   1.438       .  S
C630        C631   1.407       .  A
C631        C632   1.404       .  A
C631        H635   1.083       .  S
C632        N636   1.438       .  S
N634        H637   1.046       .  S
N634        H638   1.046       .  S
N636        H639   1.047       .  S
N636        H640   1.045       .  S
C645        C646   1.414       .  A
C645        C650   1.400       .  A
C646        C647   1.401       .  A
C646        N651   1.439       .  S
C647        C648   1.397       .  A
C647        H652   1.084       .  S
C648        C653   1.464       .  S
C648        C649   1.408       .  A
C649        C650   1.399       .  A
C649        N654   1.439       .  S
C650        H655   1.084       .  S
N651        H671   1.045       .  S
N651        H672   1.046       .  S
C653        C656   1.397       .  A
C653        C660   1.408       .  A
N654        H669   1.045       .  S
N654        H670   1.046       .  S
C656        C657   1.397       .  A
C656        H661   1.084       .  S
C657        C658   1.410       .  A
C657        N662   1.433       .  S
C658        C659   1.402       .  A
C659        C660   1.401       .  A
C659        H663   1.084       .  S
C660        N664   1.439       .  S
N662        H665   1.045       .  S
N662        H666   1.046       .  S
N664        H667   1.045       .  S
N664        H668   1.045       .  S
C673        C674   1.415       .  A
C673        C678   1.407       .  A
C674        C675   1.401       .  A
C674        N679   1.438       .  S
C675        C676   1.400       .  A
C675        H680   1.084       .  S
C676        C681   1.481       .  S
C676        C677   1.409       .  A
C677        C678   1.406       .  A
C677        N682   1.437       .  S
C678        H683   1.083       .  S
N679        H699   1.046       .  S
N679        H700   1.045       .  S
C681        C684   1.402       .  A
C681        C688   1.406       .  A
N682        H697   1.045       .  S
N682        H698   1.046       .  S
C684        C685   1.407       .  A
C684        H689   1.084       .  S
C685        C686   1.418       .  A
C685        N690   1.438       .  S
C686        C687   1.409       .  A
C687        C688   1.401       .  A
C687        H691   1.083       .  S
C688        N692   1.438       .  S
N690        H693   1.045       .  S
N690        H694   1.046       .  S
N692        H695   1.045       .  S
N692        H696   1.046       .  S
C701        C702   1.416       .  A
C701        C706   1.409       .  A
C702        C703   1.403       .  A
C702        N707   1.438       .  S
C703        C704   1.399       .  A
C703        H708   1.084       .  S
C704        C709   1.467       .  S
C704        C705   1.403       .  A
C705        C706   1.400       .  A
C705        N710   1.439       .  S
C706        H711   1.083       .  S
N707        H727   1.046       .  S
N707        H728   1.045       .  S
C709        C712   1.399       .  A
C709        C716   1.404       .  A
N710        H725   1.046       .  S
N710        H726   1.045       .  S
C712        C713   1.407       .  A
C712        H717   1.084       .  S
C713        C714   1.418       .  A
C713        N718   1.437       .  S
C714        C715   1.407       .  A
C715        C716   1.395       .  A
C715        H719   1.083       .  S
C716        N720   1.439       .  S
N718        H721   1.046       .  S
N718        H722   1.045       .  S
N720        H723   1.045       .  S
N720        H724   1.046       .  S
C729        C730   1.415       .  A
C729        C734   1.406   1_554  A
C730        C731   1.403       .  A
C730        N735   1.438       .  S
C731        C732   1.402   1_554  A
C731        H736   1.083       .  S
C732        C737   1.478       .  S
C732        C733   1.408       .  A
C733        C734   1.399       .  A
C733        N738   1.438       .  S
C734        H739   1.083       .  S
N735        H755   1.047       .  S
N735        H756   1.045       .  S
C737        C740   1.405       .  A
C737        C744   1.408   1_565  A
N738        H753   1.046       .  S
N738        H754   1.045       .  S
C740        C741   1.402   1_655  A
C740        H745   1.084       .  S
C741        C742   1.409   1_465  A
C741        N746   1.438       .  S
C742        C743   1.405       .  A
C743        C744   1.400       .  A
C743        H747   1.084       .  S
C744        N748   1.438       .  S
N746        H749   1.046       .  S
N746        H750   1.046       .  S
N748        H751   1.046       .  S
N748        H752   1.046       .  S
C757        C758   1.415       .  A
C757        C762   1.408       .  A
C758        C759   1.409       .  A
C758        N763   1.437       .  S
C759        C760   1.403       .  A
C759        H764   1.084       .  S
C760        C765   1.482       .  S
C760        C761   1.407       .  A
C761        C762   1.401       .  A
C761        N766   1.439       .  S
C762        H767   1.083       .  S
N763        H783   1.045       .  S
N763        H784   1.046       .  S
C765        C768   1.400       .  A
C765        C772   1.408       .  A
N766        H781   1.045       .  S
N766        H782   1.046       .  S
C768        C769   1.407       .  A
C768        H773   1.084       .  S
C769        C770   1.420       .  A
C769        N774   1.438   1_655  S
C770        C771   1.408       .  A
C771        C772   1.404       .  A
C771        H775   1.083       .  S
C772        N776   1.438       .  S
N774        H777   1.047   1_445  S
N774        H778   1.045   1_445  S
N776        H779   1.047       .  S
N776        H780   1.045       .  S
C785        C786   1.413       .  A
C785        C790   1.402       .  A
C786        C787   1.398   1_655  A
C786        N791   1.439       .  S
C787        C788   1.398       .  A
C787        H792   1.084       .  S
C788        C793   1.471       .  S
C788        C789   1.410   1_455  A
C789        C790   1.403       .  A
C789        N794   1.438       .  S
C790        H795   1.084       .  S
N791        H811   1.045       .  S
N791        H812   1.046   1_655  S
C793        C796   1.399       .  A
C793        C800   1.408   1_556  A
N794        H809   1.046       .  S
N794        H810   1.045   1_556  S
C796        C797   1.398       .  A
C796        H801   1.084       .  S
C797        C798   1.413   1_556  A
C797        N802   1.433       .  S
C798        C799   1.405       .  A
C799        C800   1.401       .  A
C799        H803   1.083       .  S
C800        N804   1.438       .  S
N802        H805   1.044       .  S
N802        H806   1.047       .  S
N804        H807   1.046       .  S
N804        H808   1.046       .  S
C813        C814   1.419       .  A
C813        C818   1.403       .  A
C814        C815   1.405       .  A
C814        N819   1.438       .  S
C815        C816   1.397       .  A
C815        H820   1.084       .  S
C816        C821   1.469       .  S
C816        C817   1.406       .  A
C817        C818   1.399       .  A
C817        N822   1.438       .  S
C818        H823   1.084       .  S
N819        H839   1.045       .  S
N819        H840   1.046       .  S
C821        C824   1.399       .  A
C821        C828   1.405       .  A
N822        H837   1.046       .  S
N822        H838   1.045       .  S
C824        C825   1.402       .  A
C824        H829   1.084       .  S
C825        C826   1.414       .  A
C825        N830   1.438       .  S
C826        C827   1.407       .  A
C827        C828   1.402       .  A
C827        H831   1.083       .  S
C828        N832   1.438       .  S
N830        H833   1.046       .  S
N830        H834   1.046       .  S
N832        H835   1.045       .  S
N832        H836   1.045       .  S
C841        C842   1.410       .  A
C841        C846   1.404       .  A
C842        C843   1.405       .  A
C842        N847   1.437       .  S
C843        C844   1.404       .  A
C843        H848   1.084       .  S
C844        C849   1.487       .  S
C844        C845   1.412       .  A
C845        C846   1.407       .  A
C845        N850   1.438       .  S
C846        H851   1.084       .  S
N847        H867   1.046       .  S
N847        H868   1.046       .  S
C849        C852   1.402       .  A
C849        C856   1.410       .  A
N850        H865   1.045       .  S
N850        H866   1.046       .  S
C852        C853   1.404   1_455  A
C852        H857   1.084       .  S
C853        C854   1.417       .  A
C853        N858   1.438       .  S
C854        C855   1.407       .  A
C855        C856   1.407   1_655  A
C855        H859   1.083       .  S
C856        N860   1.437       .  S
N858        H861   1.046       .  S
N858        H862   1.045       .  S
N860        H863   1.045       .  S
N860        H864   1.046       .  S
C869        C870   1.414       .  A
C869        C874   1.408       .  A
C870        C871   1.401       .  A
C870        N875   1.438       .  S
C871        C872   1.399       .  A
C871        H876   1.084       .  S
C872        C877   1.469       .  S
C872        C873   1.404       .  A
C873        C874   1.404       .  A
C873        N878   1.438       .  S
C874        H879   1.084       .  S
N875        H895   1.046       .  S
N875        H896   1.045       .  S
C877        C880   1.400       .  A
C877        C884   1.405       .  A
N878        H893   1.046       .  S
N878        H894   1.045       .  S
C880        C881   1.405       .  A
C880        H885   1.084       .  S
C881        C882   1.415       .  A
C881        N886   1.438       .  S
C882        C883   1.405       .  A
C883        C884   1.399       .  A
C883        H887   1.084       .  S
C884        N888   1.438       .  S
N886        H889   1.046       .  S
N886        H890   1.045       .  S
N888        H891   1.045       .  S
N888        H892   1.045       .  S
C897        C898   1.410       .  A
C897        C902   1.404   1_545  A
C898        C899   1.401   1_545  A
C898        N903   1.438       .  S
C899        C900   1.400       .  A
C899        H904   1.084       .  S
C900        C905   1.467       .  S
C900        C901   1.406       .  A
C901        C902   1.400       .  A
C901        N906   1.438       .  S
C902        H907   1.084       .  S
N903        H923   1.046       .  S
N903        H924   1.046       .  S
C905        C908   1.396       .  A
C905        C912   1.406       .  A
N906        H921   1.046       .  S
N906        H922   1.046       .  S
C908        C909   1.400       .  A
C908        H913   1.084       .  S
C909        C910   1.419       .  A
C909        N914   1.438       .  S
C910        C911   1.405       .  A
C911        C912   1.401       .  A
C911        H915   1.084       .  S
C912        N916   1.438       .  S
N914        H917   1.047       .  S
N914        H918   1.044       .  S
N916        H919   1.046       .  S
N916        H920   1.045       .  S
C925        C926   1.408       .  A
C925        C930   1.402       .  A
C926        C927   1.404       .  A
C926        N931   1.437       .  S
C927        C928   1.403       .  A
C927        H932   1.084       .  S
C928        C933   1.480       .  S
C928        C929   1.409       .  A
C929        C930   1.405       .  A
C929        N934   1.438       .  S
C930        H935   1.081       .  S
N931        H951   1.044       .  S
N931        H952   1.047       .  S
C933        C936   1.404       .  A
C933        C940   1.408       .  A
N934        H949   1.045       .  S
N934        H950   1.046       .  S
C936        C937   1.406       .  A
C936        H941   1.084       .  S
C937        C938   1.409       .  A
C937        N942   1.438       .  S
C938        C939   1.403       .  A
C939        C940   1.403       .  A
C939        H943   1.084       .  S
C940        N944   1.437       .  S
N942        H945   1.046       .  S
N942        H946   1.045       .  S
N944        H947   1.046       .  S
N944        H948   1.045       .  S
C953        C954   1.412       .  A
C953        C958   1.405       .  A
C954        C955   1.409       .  A
C954        N959   1.437       .  S
C955        C956   1.405       .  A
C955        H960   1.083       .  S
C956        C961   1.488       .  S
C956        C957   1.410       .  A
C957        C958   1.403       .  A
C957        N962   1.438       .  S
C958        H963   1.084       .  S
N959        H979   1.046       .  S
N959        H980   1.045       .  S
C961        C964   1.405       .  A
C961        C968   1.409       .  A
N962        H977   1.045       .  S
N962        H978   1.046       .  S
C964        C965   1.407       .  A
C964        H969   1.084       .  S
C965        C966   1.414       .  A
C965        N970   1.438       .  S
C966        C967   1.407       .  A
C967        C968   1.405       .  A
C967        H971   1.084       .  S
C968        N972   1.438       .  S
N970        H973   1.046       .  S
N970        H974   1.045       .  S
N972        H975   1.047   1_545  S
N972        H976   1.045       .  S
C981        C982   1.414       .  A
C981        C986   1.407       .  A
C982        C983   1.404       .  A
C982        N987   1.438       .  S
C983        C984   1.403       .  A
C983        H988   1.084       .  S
C984        C989   1.482       .  S
C984        C985   1.408       .  A
C985        C986   1.405       .  A
C985        N990   1.438       .  S
C986        H991   1.084       .  S
N987       H1007   1.044       .  S
N987       H1008   1.046       .  S
C989        C992   1.402       .  A
C989        C996   1.408       .  A
N990       H1005   1.046       .  S
N990       H1006   1.045       .  S
C992        C993   1.407       .  A
C992        H997   1.084       .  S
C993        C994   1.416       .  A
C993        N998   1.437       .  S
C994        C995   1.406       .  A
C995        C996   1.401       .  A
C995        H999   1.084       .  S
C996       N1000   1.438       .  S
N998       H1001   1.046       .  S
N998       H1002   1.045       .  S
N1000      H1003   1.045       .  S
N1000      H1004   1.046       .  S
C1009      C1010   1.411       .  A
C1009      C1014   1.402       .  A
C1010      C1011   1.401       .  A
C1010      N1015   1.436       .  S
C1011      C1012   1.399       .  A
C1011      H1016   1.084       .  S
C1012      C1017   1.473       .  S
C1012      C1013   1.409       .  A
C1013      C1014   1.403       .  A
C1013      N1018   1.438       .  S
C1014      H1019   1.084       .  S
N1015      H1035   1.045       .  S
N1015      H1036   1.045       .  S
C1017      C1020   1.400       .  A
C1017      C1024   1.407       .  A
N1018      H1033   1.045       .  S
N1018      H1034   1.047       .  S
C1020      C1021   1.404       .  A
C1020      H1025   1.084       .  S
C1021      C1022   1.414       .  A
C1021      N1026   1.438       .  S
C1022      C1023   1.404       .  A
C1023      C1024   1.401       .  A
C1023      H1027   1.084       .  S
C1024      N1028   1.438       .  S
N1026      H1029   1.044       .  S
N1026      H1030   1.048       .  S
N1028      H1031   1.047       .  S
N1028      H1032   1.044       .  S
C1037      C1038   1.404       .  A
C1037      C1042   1.403       .  A
C1038      C1039   1.399       .  A
C1038      N1043   1.432       .  S
C1039      C1040   1.402       .  A
C1039      H1044   1.084       .  S
C1040      C1045   1.472       .  S
C1040      C1041   1.408       .  A
C1041      C1042   1.404       .  A
C1041      N1046   1.437       .  S
C1042      H1047   1.084       .  S
N1043      H1063   1.045       .  S
N1043      H1064   1.046       .  S
C1045      C1048   1.403       .  A
C1045      C1052   1.404       .  A
N1046      H1061   1.046       .  S
N1046      H1062   1.045       .  S
C1048      C1049   1.405       .  A
C1048      H1053   1.084       .  S
C1049      C1050   1.410       .  A
C1049      N1054   1.437       .  S
C1050      C1051   1.407       .  A
C1051      C1052   1.401       .  A
C1051      H1055   1.084       .  S
C1052      N1056   1.438       .  S
N1054      H1057   1.044       .  S
N1054      H1058   1.048       .  S
N1056      H1059   1.047       .  S
N1056      H1060   1.045       .  S
C1065      C1066   1.416       .  A
C1065      C1070   1.408       .  A
C1066      C1067   1.405       .  A
C1066      N1071   1.438       .  S
C1067      C1068   1.398       .  A
C1067      H1072   1.084       .  S
C1068      C1073   1.474       .  S
C1068      C1069   1.406       .  A
C1069      C1070   1.403       .  A
C1069      N1074   1.438       .  S
C1070      H1075   1.083       .  S
N1071      H1091   1.047       .  S
N1071      H1092   1.044       .  S
C1073      C1076   1.400       .  A
C1073      C1080   1.404       .  A
N1074      H1089   1.044       .  S
N1074      H1090   1.047       .  S
C1076      C1077   1.406       .  A
C1076      H1081   1.084       .  S
C1077      C1078   1.418       .  A
C1077      N1082   1.438       .  S
C1078      C1079   1.409       .  A
C1079      C1080   1.403       .  A
C1079      H1083   1.083       .  S
C1080      N1084   1.438       .  S
N1082      H1085   1.046       .  S
N1082      H1086   1.046       .  S
N1084      H1087   1.045       .  S
N1084      H1088   1.047       .  S
C1093      C1094   1.411       .  A
C1093      C1098   1.402       .  A
C1094      C1095   1.403       .  A
C1094      N1099   1.438       .  S
C1095      C1096   1.402       .  A
C1095      H1100   1.084       .  S
C1096      C1101   1.472       .  S
C1096      C1097   1.407       .  A
C1097      C1098   1.399       .  A
C1097      N1102   1.438       .  S
C1098      H1103   1.084       .  S
N1099      H1119   1.045       .  S
N1099      H1120   1.046       .  S
C1101      C1104   1.401       .  A
C1101      C1108   1.407       .  A
N1102      H1117   1.045       .  S
N1102      H1118   1.046       .  S
C1104      C1105   1.400       .  A
C1104      H1109   1.084       .  S
C1105      C1106   1.411       .  A
C1105      N1110   1.438       .  S
C1106      C1107   1.404       .  A
C1107      C1108   1.402       .  A
C1107      H1111   1.084       .  S
C1108      N1112   1.438       .  S
N1110      H1113   1.045       .  S
N1110      H1114   1.046       .  S
N1112      H1115   1.045       .  S
N1112      H1116   1.046       .  S
C1121      C1122   1.416       .  A
C1121      C1126   1.406       .  A
C1122      C1123   1.408       .  A
C1122      N1127   1.438       .  S
C1123      C1124   1.401       .  A
C1123      H1128   1.084       .  S
C1124      C1129   1.482       .  S
C1124      C1125   1.408       .  A
C1125      C1126   1.407       .  A
C1125      N1130   1.438       .  S
C1126      H1131   1.084       .  S
N1127      H1147   1.045       .  S
N1127      H1148   1.046       .  S
C1129      C1132   1.400       .  A
C1129      C1136   1.407       .  A
N1130      H1145   1.045       .  S
N1130      H1146   1.046       .  S
C1132      C1133   1.408       .  A
C1132      H1137   1.084       .  S
C1133      C1134   1.418       .  A
C1133      N1138   1.438       .  S
C1134      C1135   1.409       .  A
C1135      C1136   1.407       .  A
C1135      H1139   1.083       .  S
C1136      N1140   1.438       .  S
N1138      H1141   1.045   1_545  S
N1138      H1142   1.046   1_545  S
N1140      H1143   1.045       .  S
N1140      H1144   1.046       .  S
C1149      C1150   1.414       .  A
C1149      C1154   1.407       .  A
C1150      C1151   1.400       .  A
C1150      N1155   1.433       .  S
C1151      C1152   1.401       .  A
C1151      H1156   1.084       .  S
C1152      C1157   1.479   1_565  S
C1152      C1153   1.408       .  A
C1153      C1154   1.403       .  A
C1153      N1158   1.438   1_565  S
C1154      H1159   1.083       .  S
N1155      H1175   1.045       .  S
N1155      H1176   1.047       .  S
C1157      C1160   1.403       .  A
C1157      C1164   1.409       .  A
N1158      H1173   1.046   1_545  S
N1158      H1174   1.045       .  S
C1160      C1161   1.404       .  A
C1160      H1165   1.084       .  S
C1161      C1162   1.413       .  A
C1161      N1166   1.438       .  S
C1162      C1163   1.404       .  A
C1163      C1164   1.401       .  A
C1163      H1167   1.084       .  S
C1164      N1168   1.438       .  S
N1166      H1169   1.046       .  S
N1166      H1170   1.046       .  S
N1168      H1171   1.046       .  S
N1168      H1172   1.045       .  S
C1177      C1178   1.413   1_655  A
C1177      C1182   1.403   1_655  A
C1178      C1179   1.406       .  A
C1178      N1183   1.432   1_445  S
C1179      C1180   1.402       .  A
C1179      H1184   1.084       .  S
C1180      C1185   1.475       .  S
C1180      C1181   1.406       .  A
C1181      C1182   1.397       .  A
C1181      N1186   1.433       .  S
C1182      H1187   1.084   1_455  S
N1183      H1203   1.046       .  S
N1183      H1204   1.046   1_655  S
C1185      C1188   1.400       .  A
C1185      C1192   1.410       .  A
N1186      H1201   1.045       .  S
N1186      H1202   1.046       .  S
C1188      C1189   1.402       .  A
C1188      H1193   1.084       .  S
C1189      C1190   1.412       .  A
C1189      N1194   1.438       .  S
C1190      C1191   1.404       .  A
C1191      C1192   1.405       .  A
C1191      H1195   1.084       .  S
C1192      N1196   1.438       .  S
N1194      H1197   1.046       .  S
N1194      H1198   1.045       .  S
N1196      H1199   1.045       .  S
N1196      H1200   1.045       .  S
C1205      C1206   1.420       .  A
C1205      C1210   1.408       .  A
C1206      C1207   1.407       .  A
C1206      N1211   1.438       .  S
C1207      C1208   1.400       .  A
C1207      H1212   1.084       .  S
C1208      C1213   1.484       .  S
C1208      C1209   1.408       .  A
C1209      C1210   1.405       .  A
C1209      N1214   1.438       .  S
C1210      H1215   1.083       .  S
N1211      H1231   1.045       .  S
N1211      H1232   1.046       .  S
C1213      C1216   1.400       .  A
C1213      C1220   1.411       .  A
N1214      H1229   1.045       .  S
N1214      H1230   1.046       .  S
C1216      C1217   1.403       .  A
C1216      H1221   1.084       .  S
C1217      C1218   1.415       .  A
C1217      N1222   1.438       .  S
C1218      C1219   1.405       .  A
C1219      C1220   1.409       .  A
C1219      H1223   1.083       .  S
C1220      N1224   1.437       .  S
N1222      H1225   1.046       .  S
N1222      H1226   1.046       .  S
N1224      H1227   1.045       .  S
N1224      H1228   1.046       .  S
C1233      C1234   1.411       .  A
C1233      C1238   1.404       .  A
C1234      C1235   1.403       .  A
C1234      N1239   1.438       .  S
C1235      C1236   1.402       .  A
C1235      H1240   1.084       .  S
C1236      C1241   1.476       .  S
C1236      C1237   1.408       .  A
C1237      C1238   1.403       .  A
C1237      N1242   1.437       .  S
C1238      H1243   1.084       .  S
N1239      H1259   1.046       .  S
N1239      H1260   1.045       .  S
C1241      C1244   1.400       .  A
C1241      C1248   1.406       .  A
N1242      H1257   1.045       .  S
N1242      H1258   1.046       .  S
C1244      C1245   1.402       .  A
C1244      H1249   1.084       .  S
C1245      C1246   1.416       .  A
C1245      N1250   1.438       .  S
C1246      C1247   1.408       .  A
C1247      C1248   1.405       .  A
C1247      H1251   1.083       .  S
C1248      N1252   1.437       .  S
N1250      H1253   1.045       .  S
N1250      H1254   1.046       .  S
N1252      H1255   1.045       .  S
N1252      H1256   1.047       .  S
C1261      C1262   1.416       .  A
C1261      C1266   1.405       .  A
C1262      C1263   1.410       .  A
C1262      N1267   1.437       .  S
C1263      C1264   1.403       .  A
C1263      H1268   1.084       .  S
C1264      C1269   1.477       .  S
C1264      C1265   1.406       .  A
C1265      C1266   1.398       .  A
C1265      N1270   1.439       .  S
C1266      H1271   1.084       .  S
N1267      H1287   1.044       .  S
N1267      H1288   1.047       .  S
C1269      C1272   1.400       .  A
C1269      C1276   1.408       .  A
N1270      H1285   1.046       .  S
N1270      H1286   1.045       .  S
C1272      C1273   1.403       .  A
C1272      H1277   1.084       .  S
C1273      C1274   1.416       .  A
C1273      N1278   1.438       .  S
C1274      C1275   1.405       .  A
C1275      C1276   1.405       .  A
C1275      H1279   1.083       .  S
C1276      N1280   1.438       .  S
N1278      H1281   1.044       .  S
N1278      H1282   1.047       .  S
N1280      H1283   1.046       .  S
N1280      H1284   1.045       .  S
C1289      C1290   1.417   1_455  A
C1289      C1294   1.411   1_455  A
C1290      C1291   1.402       .  A
C1290      N1295   1.438       .  S
C1291      C1292   1.398       .  A
C1291      H1296   1.084       .  S
C1292      C1297   1.474       .  S
C1292      C1293   1.405       .  A
C1293      C1294   1.406       .  A
C1293      N1298   1.438       .  S
C1294      H1299   1.083   1_655  S
N1295      H1315   1.045   1_655  S
N1295      H1316   1.046       .  S
C1297      C1300   1.399       .  A
C1297      C1304   1.407       .  A
N1298      H1313   1.047       .  S
N1298      H1314   1.043       .  S
C1300      C1301   1.406       .  A
C1300      H1305   1.084       .  S
C1301      C1302   1.419       .  A
C1301      N1306   1.438       .  S
C1302      C1303   1.407       .  A
C1303      C1304   1.402       .  A
C1303      H1307   1.083       .  S
C1304      N1308   1.439       .  S
N1306      H1309   1.047       .  S
N1306      H1310   1.044       .  S
N1308      H1311   1.045   1_655  S
N1308      H1312   1.044   1_655  S
C1317      C1318   1.419       .  A
C1317      C1322   1.410       .  A
C1318      C1319   1.403       .  A
C1318      N1323   1.438       .  S
C1319      C1320   1.400       .  A
C1319      H1324   1.084       .  S
C1320      C1325   1.483       .  S
C1320      C1321   1.408       .  A
C1321      C1322   1.408       .  A
C1321      N1326   1.437       .  S
C1322      H1327   1.083       .  S
N1323      H1343   1.047       .  S
N1323      H1344   1.045       .  S
C1325      C1328   1.403       .  A
C1325      C1332   1.409       .  A
N1326      H1341   1.044       .  S
N1326      H1342   1.047       .  S
C1328      C1329   1.404       .  A
C1328      H1333   1.084       .  S
C1329      C1330   1.411       .  A
C1329      N1334   1.432       .  S
C1330      C1331   1.407       .  A
C1331      C1332   1.404       .  A
C1331      H1335   1.083       .  S
C1332      N1336   1.438       .  S
N1334      H1337   1.045       .  S
N1334      H1338   1.046       .  S
N1336      H1339   1.045       .  S
N1336      H1340   1.046       .  S
C1345      C1346   1.418       .  A
C1345      C1350   1.408       .  A
C1346      C1347   1.403       .  A
C1346      N1351   1.438       .  S
C1347      C1348   1.400       .  A
C1347      H1352   1.084       .  S
C1348      C1353   1.481   1_556  S
C1348      C1349   1.408   1_556  A
C1349      C1350   1.407   1_554  A
C1349      N1354   1.437       .  S
C1350      H1355   1.083       .  S
N1351      H1371   1.045       .  S
N1351      H1372   1.046       .  S
C1353      C1356   1.401       .  A
C1353      C1360   1.409       .  A
N1354      H1369   1.045       .  S
N1354      H1370   1.046       .  S
C1356      C1357   1.405       .  A
C1356      H1361   1.084       .  S
C1357      C1358   1.415       .  A
C1357      N1362   1.438       .  S
C1358      C1359   1.406       .  A
C1359      C1360   1.405       .  A
C1359      H1363   1.084       .  S
C1360      N1364   1.438       .  S
N1362      H1365   1.046       .  S
N1362      H1366   1.045       .  S
N1364      H1367   1.046   1_545  S
N1364      H1368   1.045       .  S
C1373      C1374   1.418       .  A
C1373      C1378   1.410   1_545  A
C1374      C1375   1.406   1_545  A
C1374      N1379   1.438       .  S
C1375      C1376   1.399       .  A
C1375      H1380   1.084       .  S
C1376      C1381   1.474       .  S
C1376      C1377   1.404       .  A
C1377      C1378   1.403       .  A
C1377      N1382   1.438       .  S
C1378      H1383   1.083       .  S
N1379      H1399   1.046       .  S
N1379      H1400   1.046       .  S
C1381      C1384   1.400       .  A
C1381      C1388   1.405       .  A
N1382      H1397   1.045       .  S
N1382      H1398   1.046       .  S
C1384      C1385   1.406       .  A
C1384      H1389   1.084       .  S
C1385      C1386   1.416       .  A
C1385      N1390   1.438       .  S
C1386      C1387   1.407       .  A
C1387      C1388   1.402       .  A
C1387      H1391   1.083       .  S
C1388      N1392   1.438       .  S
N1390      H1393   1.046       .  S
N1390      H1394   1.045       .  S
N1392      H1395   1.046       .  S
N1392      H1396   1.046       .  S
C1401      C1402   1.412       .  A
C1401      C1406   1.404       .  A
C1402      C1403   1.402       .  A
C1402      N1407   1.438       .  S
C1403      C1404   1.401       .  A
C1403      H1408   1.084       .  S
C1404      C1409   1.480       .  S
C1404      C1405   1.410       .  A
C1405      C1406   1.407       .  A
C1405      N1410   1.437       .  S
C1406      H1411   1.083       .  S
N1407      H1427   1.047       .  S
N1407      H1428   1.044       .  S
C1409      C1412   1.399       .  A
C1409      C1416   1.410       .  A
N1410      H1425   1.046       .  S
N1410      H1426   1.045       .  S
C1412      C1413   1.403       .  A
C1412      H1417   1.084       .  S
C1413      C1414   1.416       .  A
C1413      N1418   1.432       .  S
C1414      C1415   1.406       .  A
C1415      C1416   1.404       .  A
C1415      H1419   1.083       .  S
C1416      N1420   1.438       .  S
N1418      H1421   1.045       .  S
N1418      H1422   1.046       .  S
N1420      H1423   1.046       .  S
N1420      H1424   1.045       .  S
C1429      C1430   1.419       .  A
C1429      C1434   1.408       .  A
C1430      C1431   1.409       .  A
C1430      N1435   1.438       .  S
C1431      C1432   1.401       .  A
C1431      H1436   1.084       .  S
C1432      C1437   1.481       .  S
C1432      C1433   1.406       .  A
C1433      C1434   1.403       .  A
C1433      N1438   1.438       .  S
C1434      H1439   1.083       .  S
N1435      H1455   1.046       .  S
N1435      H1456   1.046       .  S
C1437      C1440   1.397       .  A
C1437      C1444   1.409       .  A
N1438      H1453   1.046       .  S
N1438      H1454   1.045       .  S
C1440      C1441   1.398       .  A
C1440      H1445   1.084       .  S
C1441      C1442   1.418       .  A
C1441      N1446   1.433       .  S
C1442      C1443   1.408       .  A
C1443      C1444   1.411       .  A
C1443      H1447   1.083       .  S
C1444      N1448   1.437       .  S
N1446      H1449   1.046       .  S
N1446      H1450   1.045       .  S
N1448      H1451   1.046       .  S
N1448      H1452   1.045       .  S
C1457      C1458   1.411       .  A
C1457      C1462   1.405       .  A
C1458      C1459   1.403       .  A
C1458      N1463   1.432       .  S
C1459      C1460   1.402       .  A
C1459      H1464   1.084       .  S
C1460      C1465   1.478       .  S
C1460      C1461   1.409       .  A
C1461      C1462   1.400       .  A
C1461      N1466   1.438       .  S
C1462      H1467   1.084       .  S
N1463      H1483   1.046       .  S
N1463      H1484   1.045       .  S
C1465      C1468   1.400       .  A
C1465      C1472   1.408       .  A
N1466      H1481   1.046       .  S
N1466      H1482   1.045       .  S
C1468      C1469   1.401       .  A
C1468      H1473   1.084       .  S
C1469      C1470   1.416       .  A
C1469      N1474   1.438       .  S
C1470      C1471   1.407       .  A
C1471      C1472   1.404       .  A
C1471      H1475   1.083       .  S
C1472      N1476   1.438       .  S
N1474      H1477   1.046       .  S
N1474      H1478   1.046       .  S
N1476      H1479   1.045       .  S
N1476      H1480   1.046       .  S
C1485      C1486   1.415       .  A
C1485      C1490   1.405       .  A
C1486      C1487   1.398       .  A
C1486      N1491   1.433       .  S
C1487      C1488   1.397       .  A
C1487      H1492   1.084       .  S
C1488      C1493   1.471       .  S
C1488      C1489   1.409       .  A
C1489      C1490   1.401       .  A
C1489      N1494   1.438       .  S
C1490      H1495   1.084       .  S
N1491      H1511   1.045       .  S
N1491      H1512   1.046       .  S
C1493      C1496   1.401       .  A
C1493      C1500   1.408       .  A
N1494      H1509   1.047       .  S
N1494      H1510   1.044       .  S
C1496      C1497   1.400       .  A
C1496      H1501   1.084       .  S
C1497      C1498   1.410       .  A
C1497      N1502   1.438       .  S
C1498      C1499   1.403       .  A
C1499      C1500   1.400       .  A
C1499      H1503   1.084       .  S
C1500      N1504   1.438       .  S
N1502      H1505   1.046       .  S
N1502      H1506   1.045       .  S
N1504      H1507   1.046       .  S
N1504      H1508   1.045       .  S
C1513      C1514   1.414       .  A
C1513      C1518   1.404       .  A
C1514      C1515   1.405       .  A
C1514      N1519   1.438       .  S
C1515      C1516   1.399       .  A
C1515      H1520   1.084       .  S
C1516      C1521   1.473       .  S
C1516      C1517   1.408       .  A
C1517      C1518   1.403       .  A
C1517      N1522   1.438       .  S
C1518      H1523   1.084       .  S
N1519      H1539   1.046       .  S
N1519      H1540   1.046       .  S
C1521      C1524   1.397       .  A
C1521      C1528   1.406       .  A
N1522      H1537   1.046       .  S
N1522      H1538   1.044       .  S
C1524      C1525   1.402       .  A
C1524      H1529   1.084       .  S
C1525      C1526   1.419       .  A
C1525      N1530   1.438       .  S
C1526      C1527   1.408       .  A
C1527      C1528   1.405       .  A
C1527      H1531   1.083       .  S
C1528      N1532   1.438       .  S
N1530      H1533   1.045       .  S
N1530      H1534   1.046       .  S
N1532      H1535   1.044       .  S
N1532      H1536   1.046       .  S
C1541      C1542   1.419       .  A
C1541      C1546   1.408       .  A
C1542      C1543   1.404       .  A
C1542      N1547   1.438       .  S
C1543      C1544   1.399       .  A
C1543      H1548   1.084   1_556  S
C1544      C1549   1.476       .  S
C1544      C1545   1.406       .  A
C1545      C1546   1.403       .  A
C1545      N1550   1.438       .  S
C1546      H1551   1.083       .  S
N1547      H1567   1.044       .  S
N1547      H1568   1.047       .  S
C1549      C1552   1.402   1_556  A
C1549      C1556   1.407       .  A
N1550      H1565   1.046       .  S
N1550      H1566   1.045       .  S
C1552      C1553   1.404       .  A
C1552      H1557   1.084       .  S
C1553      C1554   1.412       .  A
C1553      N1558   1.438       .  S
C1554      C1555   1.406       .  A
C1555      C1556   1.401   1_554  A
C1555      H1559   1.084       .  S
C1556      N1560   1.438       .  S
N1558      H1561   1.045       .  S
N1558      H1562   1.046       .  S
N1560      H1563   1.046       .  S
N1560      H1564   1.045       .  S
C1569      C1570   1.413       .  A
C1569      C1574   1.400       .  A
C1570      C1571   1.404       .  A
C1570      N1575   1.438       .  S
C1571      C1572   1.399       .  A
C1571      H1576   1.084       .  S
C1572      C1577   1.470       .  S
C1572      C1573   1.409       .  A
C1573      C1574   1.401       .  A
C1573      N1578   1.439       .  S
C1574      H1579   1.084       .  S
N1575      H1595   1.046       .  S
N1575      H1596   1.046       .  S
C1577      C1580   1.397       .  A
C1577      C1584   1.407       .  A
N1578      H1593   1.045       .  S
N1578      H1594   1.045       .  S
C1580      C1581   1.401       .  A
C1580      H1585   1.084       .  S
C1581      C1582   1.416       .  A
C1581      N1586   1.438       .  S
C1582      C1583   1.406       .  A
C1583      C1584   1.404       .  A
C1583      H1587   1.083       .  S
C1584      N1588   1.438       .  S
N1586      H1589   1.046       .  S
N1586      H1590   1.046       .  S
N1588      H1591   1.046       .  S
N1588      H1592   1.045       .  S
C1597      C1598   1.413       .  A
C1597      C1602   1.405       .  A
C1598      C1599   1.398       .  A
C1598      N1603   1.438       .  S
C1599      C1600   1.398       .  A
C1599      H1604   1.084       .  S
C1600      C1605   1.470       .  S
C1600      C1601   1.407       .  A
C1601      C1602   1.403       .  A
C1601      N1606   1.437       .  S
C1602      H1607   1.084       .  S
N1603      H1623   1.045       .  S
N1603      H1624   1.046       .  S
C1605      C1608   1.399       .  A
C1605      C1612   1.406       .  A
N1606      H1621   1.046       .  S
N1606      H1622   1.046       .  S
C1608      C1609   1.402       .  A
C1608      H1613   1.084       .  S
C1609      C1610   1.414       .  A
C1609      N1614   1.438       .  S
C1610      C1611   1.404       .  A
C1611      C1612   1.401       .  A
C1611      H1615   1.084       .  S
C1612      N1616   1.438       .  S
N1614      H1617   1.046       .  S
N1614      H1618   1.046       .  S
N1616      H1619   1.045       .  S
N1616      H1620   1.046       .  S
C1625      C1626   1.413       .  A
C1625      C1630   1.405       .  A
C1626      C1627   1.407   1_556  A
C1626      N1631   1.437   1_556  S
C1627      C1628   1.401   1_554  A
C1627      H1632   1.084       .  S
C1628      C1633   1.472   1_556  S
C1628      C1629   1.406       .  A
C1629      C1630   1.401       .  A
C1629      N1634   1.438       .  S
C1630      H1635   1.084       .  S
N1631      H1651   1.046       .  S
N1631      H1652   1.046       .  S
C1633      C1636   1.399       .  A
C1633      C1640   1.404       .  A
N1634      H1649   1.045       .  S
N1634      H1650   1.046       .  S
C1636      C1637   1.404       .  A
C1636      H1641   1.084   1_554  S
C1637      C1638   1.417       .  A
C1637      N1642   1.438       .  S
C1638      C1639   1.409       .  A
C1639      C1640   1.402       .  A
C1639      H1643   1.083       .  S
C1640      N1644   1.438       .  S
N1642      H1645   1.045   1_554  S
N1642      H1646   1.046       .  S
N1644      H1647   1.045       .  S
N1644      H1648   1.045       .  S
C1653      C1654   1.408       .  A
C1653      C1658   1.403       .  A
C1654      C1655   1.401       .  A
C1654      N1659   1.438       .  S
C1655      C1656   1.402       .  A
C1655      H1660   1.084   1_556  S
C1656      C1661   1.468   1_556  S
C1656      C1657   1.405       .  A
C1657      C1658   1.401       .  A
C1657      N1662   1.437       .  S
C1658      H1663   1.084       .  S
N1659      H1679   1.046       .  S
N1659      H1680   1.045       .  S
C1661      C1664   1.399   1_554  A
C1661      C1668   1.406       .  A
N1662      H1677   1.045       .  S
N1662      H1678   1.046       .  S
C1664      C1665   1.401   1_556  A
C1664      H1669   1.084       .  S
C1665      C1666   1.411       .  A
C1665      N1670   1.438   1_564  S
C1666      C1667   1.403       .  A
C1667      C1668   1.402       .  A
C1667      H1671   1.084       .  S
C1668      N1672   1.437       .  S
N1670      H1673   1.048       .  S
N1670      H1674   1.044   1_556  S
N1672      H1675   1.046       .  S
N1672      H1676   1.045       .  S
C1681      C1682   1.417       .  A
C1681      C1686   1.406       .  A
C1682      C1683   1.403       .  A
C1682      N1687   1.438       .  S
C1683      C1684   1.400       .  A
C1683      H1688   1.084       .  S
C1684      C1689   1.477       .  S
C1684      C1685   1.408       .  A
C1685      C1686   1.403       .  A
C1685      N1690   1.438       .  S
C1686      H1691   1.083       .  S
N1687      H1707   1.045       .  S
N1687      H1708   1.046       .  S
C1689      C1692   1.399       .  A
C1689      C1696   1.406       .  A
N1690      H1705   1.046       .  S
N1690      H1706   1.046       .  S
C1692      C1693   1.402       .  A
C1692      H1697   1.084       .  S
C1693      C1694   1.419   1_565  A
C1693      N1698   1.438   1_565  S
C1694      C1695   1.410   1_545  A
C1695      C1696   1.404       .  A
C1695      H1699   1.083       .  S
C1696      N1700   1.438       .  S
N1698      H1701   1.044       .  S
N1698      H1702   1.047       .  S
N1700      H1703   1.046       .  S
N1700      H1704   1.046       .  S
C1709      C1710   1.420       .  A
C1709      C1714   1.409       .  A
C1710      C1711   1.410       .  A
C1710      N1715   1.438       .  S
C1711      C1712   1.400       .  A
C1711      H1716   1.084       .  S
C1712      C1717   1.479       .  S
C1712      C1713   1.405       .  A
C1713      C1714   1.402       .  A
C1713      N1718   1.439       .  S
C1714      H1719   1.083       .  S
N1715      H1735   1.045       .  S
N1715      H1736   1.046       .  S
C1717      C1720   1.400       .  A
C1717      C1724   1.406       .  A
N1718      H1733   1.045       .  S
N1718      H1734   1.046       .  S
C1720      C1721   1.406       .  A
C1720      H1725   1.084       .  S
C1721      C1722   1.416       .  A
C1721      N1726   1.438       .  S
C1722      C1723   1.408       .  A
C1723      C1724   1.406       .  A
C1723      H1727   1.083       .  S
C1724      N1728   1.438       .  S
N1726      H1729   1.046       .  S
N1726      H1730   1.046       .  S
N1728      H1731   1.046       .  S
N1728      H1732   1.045       .  S
C1737      C1738   1.412       .  A
C1737      C1742   1.403       .  A
C1738      C1739   1.400       .  A
C1738      N1743   1.438       .  S
C1739      C1740   1.401       .  A
C1739      H1744   1.084       .  S
C1740      C1745   1.473       .  S
C1740      C1741   1.408       .  A
C1741      C1742   1.402       .  A
C1741      N1746   1.438   1_556  S
C1742      H1747   1.084       .  S
N1743      H1763   1.046       .  S
N1743      H1764   1.046       .  S
C1745      C1748   1.399   1_556  A
C1745      C1752   1.407       .  A
N1746      H1761   1.046       .  S
N1746      H1762   1.045       .  S
C1748      C1749   1.402       .  A
C1748      H1753   1.084       .  S
C1749      C1750   1.417       .  A
C1749      N1754   1.438       .  S
C1750      C1751   1.406   1_554  A
C1751      C1752   1.400       .  A
C1751      H1755   1.083       .  S
C1752      N1756   1.438       .  S
N1754      H1757   1.046       .  S
N1754      H1758   1.045       .  S
N1756      H1759   1.046       .  S
N1756      H1760   1.045       .  S
C1765      C1766   1.412       .  A
C1765      C1770   1.401       .  A
C1766      C1767   1.402       .  A
C1766      N1771   1.438       .  S
C1767      C1768   1.398       .  A
C1767      H1772   1.084       .  S
C1768      C1773   1.468   1_554  S
C1768      C1769   1.408   1_554  A
C1769      C1770   1.402   1_556  A
C1769      N1774   1.438       .  S
C1770      H1775   1.084   1_554  S
N1771      H1791   1.044       .  S
N1771      H1792   1.047       .  S
C1773      C1776   1.397       .  A
C1773      C1780   1.407       .  A
N1774      H1789   1.047       .  S
N1774      H1790   1.044       .  S
C1776      C1777   1.403       .  A
C1776      H1781   1.084       .  S
C1777      C1778   1.418       .  A
C1777      N1782   1.438       .  S
C1778      C1779   1.404       .  A
C1779      C1780   1.401       .  A
C1779      H1783   1.084       .  S
C1780      N1784   1.438       .  S
N1782      H1785   1.047       .  S
N1782      H1786   1.044       .  S
N1784      H1787   1.044       .  S
N1784      H1788   1.046       .  S
C1793      C1794   1.413       .  A
C1793      C1798   1.402       .  A
C1794      C1795   1.403       .  A
C1794      N1799   1.438       .  S
C1795      C1796   1.400       .  A
C1795      H1800   1.084       .  S
C1796      C1801   1.472       .  S
C1796      C1797   1.408       .  A
C1797      C1798   1.400       .  A
C1797      N1802   1.438       .  S
C1798      H1803   1.084       .  S
N1799      H1819   1.044       .  S
N1799      H1820   1.047       .  S
C1801      C1804   1.399       .  A
C1801      C1808   1.409       .  A
N1802      H1817   1.044       .  S
N1802      H1818   1.047       .  S
C1804      C1805   1.402       .  A
C1804      H1809   1.084       .  S
C1805      C1806   1.416       .  A
C1805      N1810   1.438       .  S
C1806      C1807   1.404       .  A
C1807      C1808   1.400       .  A
C1807      H1811   1.084       .  S
C1808      N1812   1.439       .  S
N1810      H1813   1.047       .  S
N1810      H1814   1.044       .  S
N1812      H1815   1.047       .  S
N1812      H1816   1.045       .  S
C1821      C1822   1.420       .  A
C1821      C1826   1.409       .  A
C1822      C1823   1.402       .  A
C1822      N1827   1.438       .  S
C1823      C1824   1.398       .  A
C1823      H1828   1.084       .  S
C1824      C1829   1.475       .  S
C1824      C1825   1.405       .  A
C1825      C1826   1.405       .  A
C1825      N1830   1.438       .  S
C1826      H1831   1.083       .  S
N1827      H1847   1.046       .  S
N1827      H1848   1.045       .  S
C1829      C1832   1.400       .  A
C1829      C1836   1.406       .  A
N1830      H1845   1.046       .  S
N1830      H1846   1.045       .  S
C1832      C1833   1.405       .  A
C1832      H1837   1.084       .  S
C1833      C1834   1.417       .  A
C1833      N1838   1.438       .  S
C1834      C1835   1.405       .  A
C1835      C1836   1.401       .  A
C1835      H1839   1.083       .  S
C1836      N1840   1.438       .  S
N1838      H1841   1.045       .  S
N1838      H1842   1.046       .  S
N1840      H1843   1.045       .  S
N1840      H1844   1.046       .  S
C1849      C1850   1.419       .  A
C1849      C1854   1.406       .  A
C1850      C1851   1.403       .  A
C1850      N1855   1.438       .  S
C1851      C1852   1.396       .  A
C1851      H1856   1.084       .  S
C1852      C1857   1.468       .  S
C1852      C1853   1.408       .  A
C1853      C1854   1.401       .  A
C1853      N1858   1.440       .  S
C1854      H1859   1.083       .  S
N1855      H1875   1.046       .  S
N1855      H1876   1.045       .  S
C1857      C1860   1.397       .  A
C1857      C1864   1.407       .  A
N1858      H1873   1.046       .  S
N1858      H1874   1.044       .  S
C1860      C1861   1.396       .  A
C1860      H1865   1.084       .  S
C1861      C1862   1.412       .  A
C1861      N1866   1.433       .  S
C1862      C1863   1.406       .  A
C1863      C1864   1.404       .  A
C1863      H1867   1.083       .  S
C1864      N1868   1.438       .  S
N1866      H1869   1.046       .  S
N1866      H1870   1.046       .  S
N1868      H1871   1.046       .  S
N1868      H1872   1.043       .  S
C1877      C1878   1.417       .  A
C1877      C1882   1.406       .  A
C1878      C1879   1.402       .  A
C1878      N1883   1.438       .  S
C1879      C1880   1.397       .  A
C1879      H1884   1.084       .  S
C1880      C1885   1.470       .  S
C1880      C1881   1.407       .  A
C1881      C1882   1.403       .  A
C1881      N1886   1.438       .  S
C1882      H1887   1.083       .  S
N1883      H1903   1.045       .  S
N1883      H1904   1.047       .  S
C1885      C1888   1.399       .  A
C1885      C1892   1.405       .  A
N1886      H1901   1.046       .  S
N1886      H1902   1.045       .  S
C1888      C1889   1.405       .  A
C1888      H1893   1.084       .  S
C1889      C1890   1.416       .  A
C1889      N1894   1.438       .  S
C1890      C1891   1.406       .  A
C1891      C1892   1.400       .  A
C1891      H1895   1.084       .  S
C1892      N1896   1.438       .  S
N1894      H1897   1.047       .  S
N1894      H1898   1.044       .  S
N1896      H1899   1.045       .  S
N1896      H1900   1.046       .  S
C1905      C1906   1.416       .  A
C1905      C1910   1.406       .  A
C1906      C1907   1.404       .  A
C1906      N1911   1.438       .  S
C1907      C1908   1.400       .  A
C1907      H1912   1.084       .  S
C1908      C1913   1.481       .  S
C1908      C1909   1.409       .  A
C1909      C1910   1.406       .  A
C1909      N1914   1.437       .  S
C1910      H1915   1.083       .  S
N1911      H1931   1.046       .  S
N1911      H1932   1.045       .  S
C1913      C1916   1.399       .  A
C1913      C1920   1.407       .  A
N1914      H1929   1.045       .  S
N1914      H1930   1.046       .  S
C1916      C1917   1.405       .  A
C1916      H1921   1.084       .  S
C1917      C1918   1.420       .  A
C1917      N1922   1.438       .  S
C1918      C1919   1.409       .  A
C1919      C1920   1.406       .  A
C1919      H1923   1.083       .  S
C1920      N1924   1.438       .  S
N1922      H1925   1.044       .  S
N1922      H1926   1.047       .  S
N1924      H1927   1.045       .  S
N1924      H1928   1.046       .  S
C1933      C1934   1.412       .  A
C1933      C1938   1.402       .  A
C1934      C1935   1.403       .  A
C1934      N1939   1.438       .  S
C1935      C1936   1.399       .  A
C1935      H1940   1.084       .  S
C1936      C1941   1.472       .  S
C1936      C1937   1.408       .  A
C1937      C1938   1.404       .  A
C1937      N1942   1.438       .  S
C1938      H1943   1.084       .  S
N1939      H1959   1.046       .  S
N1939      H1960   1.045       .  S
C1941      C1944   1.397       .  A
C1941      C1948   1.409   1_655  A
N1942      H1957   1.046       .  S
N1942      H1958   1.045       .  S
C1944      C1945   1.402       .  A
C1944      H1949   1.084       .  S
C1945      C1946   1.415   1_655  A
C1945      N1950   1.439       .  S
C1946      C1947   1.403       .  A
C1947      C1948   1.405       .  A
C1947      H1951   1.084       .  S
C1948      N1952   1.438       .  S
N1950      H1953   1.046       .  S
N1950      H1954   1.046       .  S
N1952      H1955   1.046       .  S
N1952      H1956   1.046   1_455  S
C1961      C1962   1.417       .  A
C1961      C1966   1.407       .  A
C1962      C1963   1.407       .  A
C1962      N1967   1.438       .  S
C1963      C1964   1.400       .  A
C1963      H1968   1.084       .  S
C1964      C1969   1.473       .  S
C1964      C1965   1.404       .  A
C1965      C1966   1.400       .  A
C1965      N1970   1.438       .  S
C1966      H1971   1.083       .  S
N1967      H1987   1.044       .  S
N1967      H1988   1.047       .  S
C1969      C1972   1.397       .  A
C1969      C1976   1.405       .  A
N1970      H1985   1.045       .  S
N1970      H1986   1.046       .  S
C1972      C1973   1.403       .  A
C1972      H1977   1.084       .  S
C1973      C1974   1.419       .  A
C1973      N1978   1.438       .  S
C1974      C1975   1.409       .  A
C1975      C1976   1.404       .  A
C1975      H1979   1.083       .  S
C1976      N1980   1.438       .  S
N1978      H1981   1.046       .  S
N1978      H1982   1.046       .  S
N1980      H1983   1.046       .  S
N1980      H1984   1.045       .  S
C1989      C1990   1.421       .  A
C1989      C1994   1.406       .  A
C1990      C1991   1.403       .  A
C1990      N1995   1.438       .  S
C1991      C1992   1.398       .  A
C1991      H1996   1.084       .  S
C1992      C1997   1.481       .  S
C1992      C1993   1.410       .  A
C1993      C1994   1.404       .  A
C1993      N1998   1.438       .  S
C1994      H1999   1.083       .  S
N1995      H2015   1.046       .  S
N1995      H2016   1.046       .  S
C1997      C2000   1.402       .  A
C1997      C2004   1.411       .  A
N1998      H2013   1.045       .  S
N1998      H2014   1.046       .  S
C2000      C2001   1.401       .  A
C2000      H2005   1.084       .  S
C2001      C2002   1.411       .  A
C2001      N2006   1.438       .  S
C2002      C2003   1.403       .  A
C2003      C2004   1.405       .  A
C2003      H2007   1.084       .  S
C2004      N2008   1.438       .  S
N2006      H2009   1.047       .  S
N2006      H2010   1.044       .  S
N2008      H2011   1.044       .  S
N2008      H2012   1.047       .  S
C2017      C2018   1.416       .  A
C2017      C2022   1.406       .  A
C2018      C2019   1.411       .  A
C2018      N2023   1.437       .  S
C2019      C2020   1.403       .  A
C2019      H2024   1.083       .  S
C2020      C2025   1.476       .  S
C2020      C2021   1.405       .  A
C2021      C2022   1.395       .  A
C2021      N2026   1.439       .  S
C2022      H2027   1.083       .  S
N2023      H2043   1.046       .  S
N2023      H2044   1.045       .  S
C2025      C2028   1.400   1_455  A
C2025      C2032   1.406       .  A
N2026      H2041   1.046       .  S
N2026      H2042   1.046       .  S
C2028      C2029   1.401       .  A
C2028      H2033   1.084       .  S
C2029      C2030   1.415       .  A
C2029      N2034   1.438       .  S
C2030      C2031   1.409       .  A
C2031      C2032   1.405   1_655  A
C2031      H2035   1.083       .  S
C2032      N2036   1.438       .  S
N2034      H2037   1.046       .  S
N2034      H2038   1.046       .  S
N2036      H2039   1.047       .  S
N2036      H2040   1.044       .  S
C2045      C2046   1.416       .  A
C2045      C2050   1.405       .  A
C2046      C2047   1.408       .  A
C2046      N2051   1.438       .  S
C2047      C2048   1.403       .  A
C2047      H2052   1.083       .  S
C2048      C2053   1.485   1_565  S
C2048      C2049   1.411       .  A
C2049      C2050   1.401       .  A
C2049      N2054   1.438       .  S
C2050      H2055   1.083       .  S
N2051      H2071   1.046       .  S
N2051      H2072   1.046       .  S
C2053      C2056   1.401       .  A
C2053      C2060   1.412       .  A
N2054      H2069   1.046       .  S
N2054      H2070   1.045       .  S
C2056      C2057   1.399       .  A
C2056      H2061   1.084   1_545  S
C2057      C2058   1.413       .  A
C2057      N2062   1.439       .  S
C2058      C2059   1.405       .  A
C2059      C2060   1.409       .  A
C2059      H2063   1.084       .  S
C2060      N2064   1.437       .  S
N2062      H2065   1.046       .  S
N2062      H2066   1.046       .  S
N2064      H2067   1.046       .  S
N2064      H2068   1.046       .  S
C2073      C2074   1.413       .  A
C2073      C2078   1.400       .  A
C2074      C2075   1.403       .  A
C2074      N2079   1.438       .  S
C2075      C2076   1.399       .  A
C2075      H2080   1.084       .  S
C2076      C2081   1.471       .  S
C2076      C2077   1.409       .  A
C2077      C2078   1.400       .  A
C2077      N2082   1.438       .  S
C2078      H2083   1.084       .  S
N2079      H2099   1.046       .  S
N2079      H2100   1.046       .  S
C2081      C2084   1.399       .  A
C2081      C2088   1.406       .  A
N2082      H2097   1.045       .  S
N2082      H2098   1.046       .  S
C2084      C2085   1.401       .  A
C2084      H2089   1.084       .  S
C2085      C2086   1.413       .  A
C2085      N2090   1.438       .  S
C2086      C2087   1.407       .  A
C2087      C2088   1.402       .  A
C2087      H2091   1.083       .  S
C2088      N2092   1.438       .  S
N2090      H2093   1.047       .  S
N2090      H2094   1.044       .  S
N2092      H2095   1.045       .  S
N2092      H2096   1.046       .  S
C2101      C2102   1.409       .  A
C2101      C2106   1.403       .  A
C2102      C2103   1.402       .  A
C2102      N2107   1.439       .  S
C2103      C2104   1.404       .  A
C2103      H2108   1.084       .  S
C2104      C2109   1.484       .  S
C2104      C2105   1.411       .  A
C2105      C2106   1.407       .  A
C2105      N2110   1.437       .  S
C2106      H2111   1.084       .  S
N2107      H2127   1.046       .  S
N2107      H2128   1.046       .  S
C2109      C2112   1.403       .  A
C2109      C2116   1.408       .  A
N2110      H2125   1.046       .  S
N2110      H2126   1.045       .  S
C2112      C2113   1.411       .  A
C2112      H2117   1.083       .  S
C2113      C2114   1.418       .  A
C2113      N2118   1.437       .  S
C2114      C2115   1.407       .  A
C2115      C2116   1.399       .  A
C2115      H2119   1.083       .  S
C2116      N2120   1.439       .  S
N2118      H2121   1.045       .  S
N2118      H2122   1.046       .  S
N2120      H2123   1.044       .  S
N2120      H2124   1.047       .  S
C2129      C2130   1.414       .  A
C2129      C2134   1.407       .  A
C2130      C2131   1.408       .  A
C2130      N2135   1.437       .  S
C2131      C2132   1.401       .  A
C2131      H2136   1.084       .  S
C2132      C2137   1.475       .  S
C2132      C2133   1.405       .  A
C2133      C2134   1.401       .  A
C2133      N2138   1.438       .  S
C2134      H2139   1.084       .  S
N2135      H2155   1.045       .  S
N2135      H2156   1.047       .  S
C2137      C2140   1.398       .  A
C2137      C2144   1.404       .  A
N2138      H2153   1.045       .  S
N2138      H2154   1.046       .  S
C2140      C2141   1.404       .  A
C2140      H2145   1.084       .  S
C2141      C2142   1.418       .  A
C2141      N2146   1.438       .  S
C2142      C2143   1.411       .  A
C2143      C2144   1.405       .  A
C2143      H2147   1.083       .  S
C2144      N2148   1.438       .  S
N2146      H2149   1.045       .  S
N2146      H2150   1.046       .  S
N2148      H2151   1.045       .  S
N2148      H2152   1.046       .  S
C2157      C2158   1.414       .  A
C2157      C2162   1.402       .  A
C2158      C2159   1.400       .  A
C2158      N2163   1.439       .  S
C2159      C2160   1.399       .  A
C2159      H2164   1.084       .  S
C2160      C2165   1.481       .  S
C2160      C2161   1.412       .  A
C2161      C2162   1.409       .  A
C2161      N2166   1.437       .  S
C2162      H2167   1.084       .  S
N2163      H2183   1.047       .  S
N2163      H2184   1.044       .  S
C2165      C2168   1.400       .  A
C2165      C2172   1.409   1_455  A
N2166      H2181   1.046       .  S
N2166      H2182   1.045       .  S
C2168      C2169   1.405   1_465  A
C2168      H2173   1.084       .  S
C2169      C2170   1.417   1_545  A
C2169      N2174   1.438       .  S
C2170      C2171   1.406       .  A
C2171      C2172   1.404       .  A
C2171      H2175   1.083       .  S
C2172      N2176   1.438   1_655  S
N2174      H2177   1.045       .  S
N2174      H2178   1.046       .  S
N2176      H2179   1.046   1_455  S
N2176      H2180   1.045       .  S
C2185      C2186   1.408       .  A
C2185      C2190   1.401       .  A
C2186      C2187   1.402       .  A
C2186      N2191   1.438       .  S
C2187      C2188   1.403       .  A
C2187      H2192   1.084       .  S
C2188      C2193   1.480       .  S
C2188      C2189   1.411       .  A
C2189      C2190   1.405       .  A
C2189      N2194   1.438       .  S
C2190      H2195   1.084       .  S
N2191      H2211   1.046       .  S
N2191      H2212   1.045       .  S
C2193      C2196   1.404       .  A
C2193      C2200   1.412       .  A
N2194      H2209   1.046       .  S
N2194      H2210   1.046       .  S
C2196      C2197   1.405       .  A
C2196      H2201   1.084       .  S
C2197      C2198   1.408       .  A
C2197      N2202   1.438       .  S
C2198      C2199   1.398       .  A
C2199      C2200   1.401       .  A
C2199      H2203   1.084       .  S
C2200      N2204   1.438       .  S
N2202      H2205   1.046       .  S
N2202      H2206   1.045       .  S
N2204      H2207   1.046       .  S
N2204      H2208   1.046       .  S
C2213      C2214   1.414       .  A
C2213      C2218   1.403       .  A
C2214      C2215   1.403       .  A
C2214      N2219   1.438       .  S
C2215      C2216   1.399       .  A
C2215      H2220   1.084       .  S
C2216      C2221   1.470       .  S
C2216      C2217   1.407       .  A
C2217      C2218   1.400       .  A
C2217      N2222   1.438   1_655  S
C2218      H2223   1.084       .  S
N2219      H2239   1.046       .  S
N2219      H2240   1.046       .  S
C2221      C2224   1.397   1_655  A
C2221      C2228   1.409   1_655  A
N2222      H2237   1.046       .  S
N2222      H2238   1.045       .  S
C2224      C2225   1.401       .  A
C2224      H2229   1.084   1_455  S
C2225      C2226   1.414       .  A
C2225      N2230   1.439       .  S
C2226      C2227   1.402       .  A
C2227      C2228   1.404       .  A
C2227      H2231   1.084       .  S
C2228      N2232   1.438   1_455  S
N2230      H2233   1.048       .  S
N2230      H2234   1.043       .  S
N2232      H2235   1.045   1_655  S
N2232      H2236   1.046       .  S
