geometry optimzed in LAMMPS
_audit_creation_date              2020-12-01 
_audit_creation_method            'lammps2cif' 
_symmetry_space_group_name_H-M    'P1' 
_symmetry_Int_Tables_number       1 
_symmetry_cell_setting            triclinic 
loop_ 
_symmetry_equiv_pos_as_xyz 
  x,y,z 
_cell_length_a                    47.588542 
_cell_length_b                    47.792678270415934 
_cell_length_c                    24.17413798972043 
_cell_angle_alpha                 91.07553227567763 
_cell_angle_beta                  89.52220698752234 
_cell_angle_gamma                 90.04894804808701 
loop_ 
_atom_site_label 
_atom_site_type_symbol 
_atom_site_fract_x 
_atom_site_fract_y 
_atom_site_fract_z 
_atom_site_charge 
C1          C  0.09971270  0.11293979  0.23287799     0.30400
C2          C  0.13251453  0.14847556  0.29236653     0.30400
C3          C  0.12811370  0.12136379  0.20383893    -0.05800
C4          C  0.08654906  0.14178885  0.24626728    -0.06600
C5          C  0.10951155  0.10219139  0.28894578    -0.06500
C6          C  0.14511468  0.13902031  0.23530615    -0.05800
C7          C  0.10319265  0.15957873  0.27729705    -0.06600
C8          C  0.12667262  0.11971435  0.31959912    -0.06500
C9          C  0.16993348  0.14299953  0.20523618    -0.31900
N10         N  0.16815615  0.12976795  0.15500670     0.14600
C11         C  0.14252428  0.11687256  0.15357918    -0.31900
H12         H  0.13490018  0.10534708  0.11783664     0.16600
C13         C  0.08894421  0.18477947  0.28329884    -0.30800
N14         N  0.06408167  0.18308308  0.25587963     0.13400
C15         C  0.06268947  0.15689642  0.23239870    -0.30800
C16         C  0.13480309  0.10419066  0.36539174    -0.31100
N17         N  0.12209029  0.07842782  0.36354376     0.13900
H18         H  0.14893088  0.11115240  0.39768774     0.16500
C19         C  0.10680429  0.07720393  0.31646239    -0.31100
H20         H  0.09448926  0.05930998  0.30305141     0.16500
H21         H  0.04571576  0.14946326  0.20646472     0.16500
H22         H  0.18813003  0.15476970  0.21875580     0.16600
H23         H  0.09640582  0.20319798  0.30540594     0.16500
N24         N  0.49179431  0.21402147  0.24609705    -0.36200
N25         N  0.03642233  0.25650226  0.25135707    -0.56800
N26         N  0.49378439  0.30065079  0.24411946    -0.36200
N27         N  0.44907779  0.25818381  0.24930518    -0.56800
C28         C  0.01428457  0.19887480  0.26267316     0.27400
C29         C  0.46824981  0.19980335  0.26098646     0.27400
C30         C  0.01717427  0.31570174  0.25734633     0.27400
C31         C  0.47094160  0.31672621  0.25690649     0.27400
C32         C  0.05175950  0.23302975  0.24044395     0.36000
C33         C  0.05291707  0.27865679  0.23810963     0.36000
C34         C  0.43258724  0.23552190  0.23832354     0.36000
C35         C  0.43363957  0.28122137  0.23774343     0.36000
C36         C  0.00486679  0.17518396  0.28917756    -0.21500
C37         C  0.47590005  0.17580565  0.28818341    -0.21500
C38         C  0.00894807  0.34144835  0.27940465    -0.21500
C39         C  0.47994242  0.34214166  0.27884270    -0.21500
C40         C  0.07789188  0.24029326  0.21964949    -0.22600
C41         C  0.07857001  0.26906359  0.21783383    -0.22600
C42         C  0.40673539  0.24420963  0.21926847    -0.22600
C43         C  0.40739261  0.27302923  0.21886347    -0.22600
C44         C  0.04304252  0.20526668  0.25226964    -0.17900
C45         C  0.44007065  0.20724814  0.24854538    -0.17900
C46         C  0.44223774  0.30953127  0.24732485    -0.17900
C47         C  0.04567784  0.30736085  0.24724897    -0.17900
H48         H  0.01754970  0.15946114  0.30849292     0.15000
H49         H  0.46197153  0.16076288  0.30683503     0.15000
H50         H  0.02238822  0.35805838  0.29481674     0.15000
H51         H  0.46698218  0.35937354  0.29352710     0.15000
H52         H  0.09468020  0.22634733  0.20660039     0.13300
H53         H  0.09599272  0.28137872  0.20273135     0.13300
H54         H  0.38919111  0.23121153  0.20678734     0.13300
H55         H  0.39042112  0.28635883  0.20582423     0.13300
H56         H  0.49250605  0.23153978  0.22110880     0.26500
H57         H  0.49348872  0.28160131  0.22251732     0.26500
C58         C  0.34962886  0.36632370  0.27574757     0.30400
C59         C  0.38382440  0.39883593  0.21479912     0.30400
C60         C  0.33837608  0.37379843  0.21793364    -0.05800
C61         C  0.35738599  0.39489180  0.30270487    -0.06600
C62         C  0.37939151  0.35382174  0.26316749    -0.06500
C63         C  0.35566617  0.39073762  0.18721280    -0.05800
C64         C  0.37386962  0.41218222  0.27073279    -0.06600
C65         C  0.39642007  0.37043896  0.23088787    -0.06500
C66         C  0.34202948  0.39577349  0.13760975    -0.31900
N67         N  0.31702260  0.38182160  0.13664049     0.14600
C68         C  0.31474841  0.36825851  0.18587630    -0.31900
H69         H  0.29706407  0.35539935  0.19785948     0.16600
C70         C  0.37552354  0.43757362  0.29983188    -0.30800
N71         N  0.36297441  0.43525221  0.35041961     0.13400
C72         C  0.35183223  0.40906522  0.35232619    -0.30800
C73         C  0.42158578  0.35626621  0.22162434    -0.31100
N74         N  0.42087052  0.33157906  0.24883025     0.13900
H75         H  0.43902018  0.36334266  0.19647143     0.16500
C76         C  0.39572256  0.33054883  0.27604942    -0.31100
H77         H  0.39039765  0.31401990  0.30412157     0.16500
H78         H  0.34011403  0.40102596  0.38713458     0.16500
H79         H  0.34963643  0.40895724  0.10479840     0.16600
H80         H  0.38496803  0.45664318  0.28530064     0.16500
N81         N  0.12012824  0.00476865  0.41568943    -0.36200
N82         N  0.11971060  0.46036120  0.49725703    -0.56800
N83         N  0.11577894  0.00345178  0.58676729    -0.36200
N84         N  0.12190017  0.04769714  0.50546886    -0.56800
C85         C  0.12626207  0.48203150  0.38291177     0.27400
C86         C  0.12752142  0.02811841  0.38753691     0.27400
C87         C  0.12154028  0.48001680  0.61556958     0.27400
C88         C  0.12204351  0.02598545  0.61976741     0.27400
C89         C  0.11517933  0.44468201  0.45055279     0.36000
C90         C  0.11316024  0.44403370  0.54104146     0.36000
C91         C  0.11652134  0.06378826  0.46108656     0.36000
C92         C  0.11409291  0.06296868  0.55104734     0.36000
C93         C  0.13792118  0.49115513  0.33375991    -0.21500
C94         C  0.13861942  0.02005762  0.33651261    -0.21500
C95         C  0.13184004  0.48784187  0.66713142    -0.21500
C96         C  0.13214338  0.01670419  0.66975326    -0.21500
C97         C  0.10560559  0.41840312  0.46498088    -0.22600
C98         C  0.10436586  0.41797917  0.52195414    -0.22600
C99         C  0.10494813  0.08899840  0.47859730    -0.22600
C100        C  0.10352670  0.08857615  0.53539459    -0.22600
C101        C  0.12064828  0.45334488  0.39516686    -0.17900
C102        C  0.12269489  0.05650690  0.40500599    -0.17900
C103        C  0.11764217  0.05463147  0.60672085    -0.17900
C104        C  0.11632651  0.45178029  0.59801316    -0.17900
H105        H  0.14554314  0.47830413  0.29966025     0.15000
H106        H  0.14648455  0.03359270  0.30449388     0.15000
H107        H  0.13865067  0.47420163  0.69961980     0.15000
H108        H  0.13921925  0.02934510  0.70452898     0.15000
H109        H  0.09975123  0.40133383  0.43743471     0.13300
H110        H  0.09750073  0.40047704  0.54639667     0.13300
H111        H  0.09746554  0.10562363  0.45301174     0.13300
H112        H  0.09510327  0.10504835  0.56197625     0.13300
H113        H  0.10883521  0.00455078  0.45267751     0.26500
H114        H  0.10545752  0.00399490  0.54902515     0.26500
N115        N  0.36556940  0.00755287  0.41288758    -0.36200
N116        N  0.36090933  0.46401663  0.49631359    -0.56800
N117        N  0.36659694  0.00747830  0.58403079    -0.36200
N118        N  0.36566207  0.05106611  0.50047923    -0.56800
C119        C  0.35766996  0.48500134  0.38166255     0.27400
C120        C  0.35977353  0.03080739  0.38369882     0.27400
C121        C  0.35940864  0.48464788  0.61386379     0.27400
C122        C  0.36146732  0.03064896  0.61609734     0.27400
C123        C  0.36758155  0.44850220  0.45030768     0.36000
C124        C  0.36806609  0.44846201  0.54051933     0.36000
C125        C  0.37185475  0.06671886  0.45561359     0.36000
C126        C  0.37213916  0.06686603  0.54598116     0.36000
C127        C  0.34632129  0.49411181  0.33255862    -0.21500
C128        C  0.34775990  0.02294952  0.33373665    -0.21500
C129        C  0.34942433  0.49345172  0.66529605    -0.21500
C130        C  0.35067687  0.02233760  0.66669297    -0.21500
C131        C  0.37926281  0.42329681  0.46553295    -0.22600
C132        C  0.37966860  0.42339273  0.52241609    -0.22600
C133        C  0.38249488  0.09238020  0.47280504    -0.22600
C134        C  0.38258960  0.09253010  0.52980970    -0.22600
C135        C  0.36249020  0.45650792  0.39480602    -0.17900
C136        C  0.36655120  0.05880385  0.39949265    -0.17900
C137        C  0.36749091  0.05896626  0.60191673    -0.17900
C138        C  0.36344193  0.45611632  0.59707458    -0.17900
H139        H  0.33795067  0.48134584  0.29912514     0.15000
H140        H  0.34073772  0.03656458  0.30137049     0.15000
H141        H  0.34197410  0.48044417  0.69851765     0.15000
H142        H  0.34421356  0.03564155  0.70118509     0.15000
H143        H  0.38746162  0.40685190  0.43862866     0.13300
H144        H  0.38856213  0.40734282  0.54763423     0.13300
H145        H  0.38972625  0.10917088  0.44698750     0.13300
H146        H  0.38980944  0.10953921  0.55623392     0.13300
H147        H  0.37719361  0.00698307  0.44913188     0.26500
H148        H  0.37718067  0.00707869  0.54618857     0.26500
C149        C  0.10125554  0.39852199  0.78179696     0.30400
C150        C  0.13376105  0.36493469  0.71614269     0.30400
C151        C  0.13081559  0.39200852  0.80427330    -0.05800
C152        C  0.08876073  0.36905352  0.76842622    -0.06600
C153        C  0.10744435  0.40946808  0.72227410    -0.06500
C154        C  0.14703849  0.37435007  0.77153825    -0.05800
C155        C  0.10587089  0.35165415  0.73616380    -0.06600
C156        C  0.12471148  0.39247118  0.68996020    -0.06500
C157        C  0.17131999  0.36873950  0.80083154    -0.31900
N158        N  0.17113886  0.38379875  0.84891798     0.14600
C159        C  0.14626721  0.39802070  0.85164271    -0.31900
H160        H  0.13958511  0.41123210  0.88613628     0.16600
C161        C  0.09217670  0.32609414  0.73080085    -0.30800
N162        N  0.06647137  0.32774276  0.75571695     0.13400
C163        C  0.06422127  0.35402616  0.77867286    -0.30800
C164        C  0.12962886  0.40575419  0.64025209    -0.31100
N165        N  0.11497315  0.43019165  0.64006820     0.13900
H166        H  0.14333821  0.39837640  0.60715236     0.16500
C167        C  0.10058314  0.43203072  0.68902755    -0.31100
H168        H  0.08614885  0.44885115  0.69914499     0.16500
H169        H  0.04593512  0.36175781  0.80102635     0.16500
H170        H  0.18777872  0.35414801  0.78911335     0.16600
H171        H  0.10004051  0.30770553  0.70901685     0.16500
N172        N  0.03674040  0.25454331  0.75123993    -0.36200
N173        N  0.49276230  0.21100117  0.75457708    -0.56800
N174        N  0.44979994  0.25405324  0.74208140    -0.36200
N175        N  0.49355915  0.29782098  0.74989299    -0.56800
C176        C  0.05181312  0.23158938  0.76498643     0.27400
C177        C  0.05213850  0.27762453  0.76502391     0.27400
C178        C  0.43390193  0.23152625  0.75613418     0.27400
C179        C  0.43421255  0.27749410  0.75189510     0.27400
C180        C  0.01585446  0.19531022  0.74285219     0.36000
C181        C  0.47021287  0.19487018  0.74126801     0.36000
C182        C  0.01685907  0.31346029  0.73994929     0.36000
C183        C  0.47125154  0.31298952  0.73284181     0.36000
C184        C  0.07706854  0.24017901  0.78788798    -0.21500
C185        C  0.07722588  0.26911518  0.78813558    -0.21500
C186        C  0.40797363  0.24090687  0.77539937    -0.21500
C187        C  0.40815934  0.26976385  0.77265468    -0.21500
C188        C  0.00787485  0.16955300  0.72128442    -0.22600
C189        C  0.47901827  0.16910798  0.72076076    -0.22600
C190        C  0.00929140  0.33841095  0.71599844    -0.22600
C191        C  0.48052020  0.33808827  0.71139436    -0.22600
C192        C  0.04400457  0.20315292  0.75442265    -0.17900
C193        C  0.04478356  0.30598755  0.75412582    -0.17900
C194        C  0.44252283  0.30551719  0.74028916    -0.17900
C195        C  0.44175158  0.20274990  0.74925399    -0.17900
H196        H  0.09370614  0.22698994  0.80294807     0.15000
H197        H  0.09401102  0.28232526  0.80353582     0.15000
H198        H  0.39067429  0.22835402  0.79032531     0.15000
H199        H  0.39105463  0.28345086  0.78510463     0.15000
H200        H  0.02151308  0.15311367  0.70609545     0.13300
H201        H  0.46606288  0.15202629  0.70570561     0.13300
H202        H  0.02302899  0.35501078  0.70239574     0.13300
H203        H  0.46792187  0.35449090  0.69389175     0.13300
H204        H  0.01832337  0.25428453  0.72838067     0.26500
H205        H  0.46916689  0.25339201  0.72178567     0.26500
C206        C  0.34881253  0.14692653  0.72493091     0.30400
C207        C  0.38167144  0.11416038  0.78747915     0.30400
C208        C  0.35736351  0.11876009  0.69731329    -0.05800
C209        C  0.37823437  0.15948529  0.73965200    -0.06600
C210        C  0.33639403  0.13889082  0.78141098    -0.06500
C211        C  0.37438754  0.10196414  0.72883232    -0.05800
C212        C  0.39491527  0.14277051  0.77247903    -0.06600
C213        C  0.35291736  0.12194875  0.81261536    -0.06500
C214        C  0.38135221  0.07884959  0.69529080    -0.31900
N215        N  0.36793890  0.08049729  0.64582185     0.14600
C216        C  0.35377586  0.10527124  0.64637389    -0.31900
H217        H  0.34142361  0.11282280  0.61237072     0.16600
C218        C  0.42066159  0.15641314  0.77828431    -0.30800
N219        N  0.42009353  0.18099584  0.75048944     0.13400
C220        C  0.39503619  0.18203240  0.72425063    -0.30800
C221        C  0.33824361  0.11658887  0.86113087    -0.31100
N222        N  0.31322333  0.13043174  0.86075531     0.13900
H223        H  0.34538698  0.10363770  0.89446302     0.16500
C224        C  0.31201027  0.14421990  0.81191160    -0.31100
H225        H  0.29469591  0.15728544  0.79946679     0.16500
H226        H  0.39037217  0.19770850  0.69405943     0.16500
H227        H  0.39535617  0.06196611  0.70572281     0.16600
H228        H  0.43857363  0.14889436  0.80090441     0.16500
N229        N  0.24473124  0.37950384  0.07588494    -0.36200
N230        N  0.28868593  0.38501956  0.99082777    -0.56800
N231        N  0.24483234  0.38197581  0.90509785    -0.36200
N232        N  0.20113908  0.38194938  0.99100277    -0.56800
C233        C  0.26731719  0.38674652  0.10711069     0.27400
C234        C  0.22129049  0.38506146  0.10664455     0.27400
C235        C  0.26785272  0.38850725  0.87413523     0.27400
C236        C  0.22159427  0.38797231  0.87496908     0.27400
C237        C  0.30459719  0.37891144  0.03572041     0.36000
C238        C  0.30469086  0.37951839  0.94488550     0.36000
C239        C  0.18525204  0.37482844  0.03532443     0.36000
C240        C  0.18513029  0.37696767  0.94580692     0.36000
C241        C  0.25803304  0.39737790  0.15775534    -0.21500
C242        C  0.22908742  0.39625139  0.15754331    -0.21500
C243        C  0.25905032  0.39880638  0.82389541    -0.21500
C244        C  0.23003355  0.39841907  0.82438589    -0.21500
C245        C  0.33071682  0.36946714  0.01805816    -0.22600
C246        C  0.33065655  0.36965514  0.96097153    -0.22600
C247        C  0.15926477  0.36511483  0.01817576    -0.22600
C248        C  0.15919366  0.36647632  0.96149268    -0.22600
C249        C  0.29605198  0.38238306  0.09241414    -0.17900
C250        C  0.19312074  0.37890770  0.09121211    -0.17900
C251        C  0.19300491  0.38306502  0.89074697    -0.17900
C252        C  0.29654909  0.38397582  0.88869413    -0.17900
H253        H  0.27076644  0.40528322  0.19142085     0.15000
H254        H  0.21537404  0.40302181  0.19112206     0.15000
H255        H  0.27213210  0.40603993  0.79024258     0.15000
H256        H  0.21670135  0.40519727  0.79116681     0.15000
H257        H  0.34784314  0.36245672  0.04347575     0.13300
H258        H  0.34752360  0.36242910  0.93432089     0.13300
H259        H  0.14211133  0.35777125  0.04373791     0.13300
H260        H  0.14206836  0.36017511  0.93490871     0.13300
H261        H  0.24534627  0.36854930  0.03835087     0.26500
H262        H  0.24507635  0.37142824  0.94220824     0.26500
N263        N  0.24149341  0.13034592  0.09321117    -0.36200
N264        N  0.28481731  0.12788314  0.00572639    -0.56800
N265        N  0.24049309  0.13304842  0.92222677    -0.36200
N266        N  0.19706561  0.13013879  0.00917126    -0.56800
C267        C  0.26469034  0.12251345  0.12189076     0.27400
C268        C  0.21830948  0.12403313  0.12416115     0.27400
C269        C  0.26328279  0.12590347  0.89069135     0.27400
C270        C  0.21718790  0.12656527  0.89242520     0.27400
C271        C  0.30113209  0.13312521  0.05061363     0.36000
C272        C  0.30033563  0.13475645  0.96054307     0.36000
C273        C  0.18136729  0.13555215  0.05544047     0.36000
C274        C  0.18098346  0.13670878  0.96496046     0.36000
C275        C  0.25596279  0.11075213  0.17117281    -0.21500
C276        C  0.22694430  0.11186575  0.17273586    -0.21500
C277        C  0.25435617  0.11450053  0.84080956    -0.21500
C278        C  0.22540469  0.11476261  0.84202105    -0.21500
C279        C  0.32685818  0.14374654  0.03368905    -0.22600
C280        C  0.32637676  0.14466436  0.97685094    -0.22600
C281        C  0.15538633  0.14589296  0.04038221    -0.22600
C282        C  0.15515652  0.14663470  0.98339829    -0.24800
C283        C  0.29349746  0.12726191  0.10634703    -0.17900
C284        C  0.18961639  0.12992026  0.11085303    -0.17900
C285        C  0.18876854  0.13226515  0.90826117    -0.17900
C286        C  0.29191591  0.13062133  0.90466411    -0.17900
H287        H  0.26910567  0.10211809  0.20291286     0.15000
H288        H  0.21371537  0.10426149  0.20583048     0.15000
H289        H  0.26733410  0.10641437  0.80724914     0.15000
H290        H  0.21197770  0.10672072  0.80960484     0.15000
H291        H  0.34413607  0.15058268  0.05938827     0.13300
H292        H  0.34320665  0.15213880  0.95064534     0.13300
H293        H  0.13835728  0.15249869  0.06750361     0.13300
H294        H  0.13793171  0.15388762  0.95852420     0.13300
H295        H  0.24157024  0.14192286  0.05717489     0.26500
H296        H  0.24088637  0.14428855  0.95953458     0.26500
C297        C  0.38679055  0.39699079  0.76840297     0.30400
C298        C  0.35315292  0.36381044  0.70602657     0.30400
C299        C  0.35824281  0.38955811  0.79622849    -0.05800
C300        C  0.37687423  0.40981251  0.71329204    -0.06600
C301        C  0.39908267  0.36846322  0.75126122    -0.06500
C302        C  0.34094004  0.37228326  0.76450346    -0.05800
C303        C  0.35957440  0.39291964  0.68147130    -0.06600
C304        C  0.38210983  0.35157886  0.71945530    -0.06500
C305        C  0.31610220  0.36916942  0.79509797    -0.31900
N306        N  0.31797971  0.38332744  0.84450368     0.14600
C307        C  0.34340639  0.39654432  0.84458286    -0.31900
H308        H  0.35050320  0.41052414  0.87730587     0.16600
C309        C  0.35156662  0.40861072  0.63615328    -0.30800
N310        N  0.36407835  0.43433204  0.63891658     0.13400
C311        C  0.37896041  0.43536580  0.68673363    -0.30800
C312        C  0.39613645  0.32631237  0.71141981    -0.31100
N313        N  0.42127862  0.32750776  0.73810369     0.13900
H314        H  0.38840650  0.30828860  0.68841603     0.16500
C315        C  0.42303058  0.35331724  0.76281824    -0.31100
H316        H  0.44025275  0.36040354  0.78849229     0.16500
H317        H  0.39045198  0.45359970  0.70106294     0.16500
H318        H  0.29747852  0.35796882  0.78214815     0.16600
H319        H  0.33767278  0.40175130  0.60338070     0.16500
C320        C  0.38530019  0.11413872  0.22143857     0.30400
C321        C  0.35118231  0.14752678  0.28511582     0.30400
C322        C  0.37706526  0.10270865  0.27854347    -0.05800
C323        C  0.39686604  0.14385324  0.23478126    -0.06600
C324        C  0.35618354  0.12127747  0.19512651    -0.06500
C325        C  0.35957311  0.11944415  0.31048981    -0.05800
C326        C  0.37952357  0.16070735  0.26763960    -0.06600
C327        C  0.33837427  0.13754155  0.22850427    -0.06500
C328        C  0.35345718  0.10491468  0.35835332    -0.31900
N329        N  0.36740169  0.08005504  0.35696547     0.14600
C330        C  0.38173806  0.07846909  0.30792337    -0.31900
H331        H  0.39450892  0.06086539  0.29438098     0.16600
C332        C  0.39325924  0.18613956  0.27541940    -0.30800
N333        N  0.41846731  0.18540627  0.24810892     0.13400
C334        C  0.42050830  0.15977825  0.22240965    -0.30800
C335        C  0.31299815  0.13938333  0.19987109    -0.31100
N336        N  0.31536749  0.12719246  0.14897462     0.13900
H337        H  0.29336723  0.14803412  0.21428937     0.16500
C338        C  0.34183165  0.11630832  0.14543205    -0.31100
H339        H  0.35004836  0.10578202  0.10879219     0.16500
H340        H  0.43812819  0.15308939  0.19686223     0.16500
H341        H  0.33959986  0.11177036  0.39162289     0.16600
H342        H  0.38559626  0.20374465  0.29996771     0.16500
C343        C  0.13485972  0.14414381  0.72599022     0.30400
C344        C  0.09997898  0.11239258  0.78721865     0.30400
C345        C  0.14600617  0.13668025  0.78336991    -0.05800
C346        C  0.10566709  0.15758462  0.73953598    -0.06600
C347        C  0.12636279  0.11577863  0.69930091    -0.06500
C348        C  0.12841103  0.12062190  0.81566565    -0.05800
C349        C  0.08831017  0.14147319  0.77249301    -0.06600
C350        C  0.10916570  0.09934805  0.73108739    -0.06500
C351        C  0.14183387  0.11887376  0.86699125    -0.31900
N352        N  0.16718234  0.13217839  0.86528306     0.14600
C353        C  0.16947580  0.14366812  0.81433637    -0.31900
H354        H  0.18702878  0.15624189  0.80056461     0.16600
C355        C  0.06407174  0.15685283  0.78334582    -0.30800
N356        N  0.06545320  0.18137760  0.75565940     0.13400
C357        C  0.09030887  0.18158044  0.72757212    -0.30800
C358        C  0.10420079  0.07474861  0.70096528    -0.31100
N359        N  0.11759491  0.07602317  0.65094445     0.13900
H360        H  0.09131025  0.05740688  0.71420927     0.16500
C361        C  0.13088847  0.10130218  0.64958401    -0.31100
H362        H  0.14327688  0.10857338  0.61496729     0.16500
H363        H  0.09588251  0.19779961  0.69896456     0.16500
H364        H  0.13384898  0.10925029  0.90395427     0.16600
H365        H  0.04652246  0.15047920  0.80894548     0.16500
C366        C  0.13805963  0.36409403  0.27405966     0.30400
C367        C  0.10524043  0.39681710  0.21135541     0.30400
C368        C  0.14998361  0.37086053  0.21579695    -0.05800
C369        C  0.10894846  0.35137887  0.25916538    -0.06600
C370        C  0.13060302  0.39305556  0.29995817    -0.06500
C371        C  0.13338187  0.38798004  0.18506247    -0.05800
C372        C  0.09176701  0.36839031  0.22814928    -0.06600
C373        C  0.11336412  0.40968827  0.26854514    -0.06500
C374        C  0.14701567  0.39248828  0.13507158    -0.31900
N375        N  0.17151510  0.37803438  0.13400105     0.14600
C376        C  0.17290191  0.36376253  0.18187875    -0.31900
H377        H  0.18946903  0.34901473  0.19019310     0.16600
C378        C  0.06625551  0.35425137  0.22254476    -0.30800
N379        N  0.06787208  0.32869117  0.24636116     0.13400
C380        C  0.09406509  0.32680165  0.26850125    -0.30800
C381        C  0.10742547  0.43356307  0.30070142    -0.31100
N382        N  0.12123416  0.43227161  0.35003144     0.13900
H383        H  0.09384080  0.45057891  0.28904231     0.16500
C384        C  0.13547013  0.40744063  0.34954168    -0.31100
H385        H  0.14822575  0.40010986  0.38316785     0.16500
H386        H  0.10166863  0.30888284  0.29056220     0.16500
H387        H  0.13979842  0.40562120  0.10209258     0.16600
H388        H  0.04748711  0.36200719  0.20320935     0.16500
O389        O  0.02207261  0.00886786  0.12816721    -0.79800
O390        O  0.46224613  0.03669465  0.92878906    -0.79800
O391        O  0.02092385  0.05111821  0.96385798    -0.79800
O392        O  0.45694025  0.04147175  0.04680202    -0.79700
O393        O  0.01375526  0.02433612  0.89253505    -0.79800
O394        O  0.46505202  0.01288990  0.11660172    -0.79800
O395        O  0.42211628  0.02223099  0.96494439    -0.79800
O396        O  0.02730246  0.04393584  0.07154647    -0.79800
C397        C  0.03086296  0.03338224  0.11799463     1.09900
C398        C  0.43537974  0.03829776  0.93317318     1.09800
C399        C  0.02287413  0.04689468  0.91286843     1.10000
C400        C  0.45507871  0.03565190  0.09749564     1.09800
O401        O  0.46808962  0.45908229  0.04989102    -0.79800
O402        O  0.01159969  0.46832757  0.93146649    -0.79800
O403        O  0.05476649  0.49068442  0.05125229    -0.79800
O404        O  0.45219154  0.47569986  0.94136576    -0.79700
O405        O  0.47207474  0.49100077  0.86514838    -0.79800
O406        O  0.02175106  0.45910271  0.05756347    -0.79800
O407        O  0.43411812  0.48796852  0.04708785    -0.79700
O408        O  0.04807829  0.49620227  0.94273606    -0.79800
Co409      Co  0.49401333  0.98536991  0.08484996     1.51500
Co410      Co  0.48682035  0.00115593  0.93433709     1.51700
Co411      Co  0.03575995  0.02052333  0.00740657     1.51600
Co412      Co  0.45664280  0.01019405  0.99415311     1.51500
O413        O  0.49701032  0.00499495  0.01335038    -1.41700
C414        C  0.44314230  0.46448757  0.06009408     1.09900
C415        C  0.03734925  0.47350814  0.92456260     1.10000
C416        C  0.04702779  0.46577939  0.06067183     1.09900
C417        C  0.45605121  0.47382576  0.88852487     1.09900
O418        O  0.22704955  0.22886169  0.38897369    -0.79800
O419        O  0.22962623  0.28082916  0.61367955    -0.79800
O420        O  0.21654670  0.18846569  0.53664409    -0.79800
O421        O  0.20286112  0.28923912  0.44126094    -0.79700
O422        O  0.21168852  0.22873552  0.58250418    -0.79800
O423        O  0.23453914  0.28297940  0.37655059    -0.79800
O424        O  0.20137238  0.28595541  0.54654341    -0.79800
O425        O  0.19959861  0.22741093  0.46292608    -0.79800
C426        C  0.20307211  0.22442636  0.41144436     1.09900
C427        C  0.20718983  0.29096787  0.59550317     1.09800
C428        C  0.20596647  0.20253630  0.57634411     1.10000
C429        C  0.21029104  0.29115184  0.39189792     1.09800
O430        O  0.28707381  0.28063383  0.43740820    -0.79800
O431        O  0.26082836  0.23421035  0.63372910    -0.79800
O432        O  0.25029690  0.19571180  0.45008368    -0.79800
O433        O  0.25889253  0.31035850  0.55342261    -0.79700
O434        O  0.28330381  0.27137630  0.56281288    -0.79800
O435        O  0.28334422  0.22602592  0.44361219    -0.79800
O436        O  0.25772463  0.31549544  0.44341048    -0.79700
O437        O  0.26734066  0.21104102  0.55387521    -0.79800
Co438      Co  0.25832048  0.25444272  0.41475396     1.51500
Co439      Co  0.24871856  0.25017095  0.56818988     1.51700
Co440      Co  0.23231142  0.22098780  0.50777591     1.51600
Co441      Co  0.23003871  0.29876748  0.49647182     1.51500
O442        O  0.24282563  0.25965708  0.48995706    -1.41700
C443        C  0.28138545  0.30556604  0.42828386     1.09900
C444        C  0.27274629  0.21499919  0.60554940     1.10000
C445        C  0.27501753  0.20159593  0.43562088     1.09900
C446        C  0.28065093  0.29737250  0.56973005     1.09900
C447        C  0.08847431  0.45685852  0.11658606    -0.08800
C448        C  0.06581436  0.44608201  0.08693349     0.07400
C449        C  0.05837456  0.41782900  0.09309929    -0.02500
C450        C  0.07136794  0.40243194  0.13347636    -0.07000
C451        C  0.09032106  0.41493459  0.17085782     0.06500
C452        C  0.10091082  0.44176383  0.15799407    -0.02000
Br453      Br  0.13468724  0.45800424  0.18792252    -0.01700
H454        H  0.09614151  0.47747450  0.10913027     0.10500
H455        H  0.06758271  0.38028720  0.13260140     0.08500
Br456      Br  0.03111853  0.39858548  0.04797113    -0.02100
C457        C  0.16371750  0.31029282  0.37482969    -0.08800
C458        C  0.19184301  0.30716478  0.35696551     0.07400
C459        C  0.20291170  0.32549654  0.31777766    -0.02500
C460        C  0.18593491  0.34646999  0.29828403    -0.07000
C461        C  0.15696739  0.34687266  0.30946664     0.06500
C462        C  0.14668533  0.33087962  0.35339058    -0.02000
Br463      Br  0.11244792  0.33954556  0.39308700    -0.01700
H464        H  0.15547123  0.29798197  0.40850380     0.10500
H465        H  0.19579021  0.36284429  0.27494751     0.08500
Br466      Br  0.24087800  0.32439565  0.29020037    -0.02100
C467        C  0.19518831  0.16112165  0.62944487    -0.08800
C468        C  0.18847241  0.18874150  0.61664343     0.07400
C469        C  0.16791492  0.20317842  0.64778300    -0.02500
C470        C  0.15291643  0.18908353  0.68756035    -0.07000
C471        C  0.15604189  0.16025160  0.69331395     0.06500
C472        C  0.17984715  0.14706262  0.66913822    -0.02000
Br473      Br  0.19408756  0.11121570  0.69087221    -0.01700
H474        H  0.21290834  0.15067573  0.60962613     0.10500
H475        H  0.13944789  0.20111358  0.71477098     0.08500
Br476      Br  0.15773615  0.24135051  0.63722357    -0.02100
C477        C  0.08850342  0.07929327  0.86219055    -0.08800
C478        C  0.07939145  0.09402032  0.81672537     0.07400
C479        C  0.05158007  0.08932137  0.79765550    -0.02500
C480        C  0.03264951  0.07472158  0.83060301    -0.07000
C481        C  0.04143149  0.06414123  0.88093011     0.06500
C482        C  0.06976369  0.06585280  0.89587154    -0.02000
Br483      Br  0.08553601  0.04747375  0.95753370    -0.01700
H484        H  0.11042421  0.07621494  0.86985778     0.10500
H485        H  0.01137689  0.07105996  0.81650166     0.08500
Br486      Br  0.03891645  0.09855146  0.72505919    -0.02100
C487        C  0.44962923  0.07061581  0.17354672    -0.08800
C488        C  0.43755189  0.05382771  0.13241318     0.07400
C489        C  0.40835066  0.05466664  0.12475565    -0.02500
C490        C  0.39224126  0.07374344  0.15483224    -0.07000
C491        C  0.40449037  0.09360648  0.19061527     0.06500
C492        C  0.43317515  0.08955050  0.20445540    -0.02000
Br493      Br  0.45030029  0.10463686  0.27001817    -0.01700
H494        H  0.47171915  0.06857534  0.18234129     0.10500
H495        H  0.36979450  0.07150808  0.15230724     0.08500
Br496      Br  0.38837430  0.02940860  0.07681469    -0.02100
C497        C  0.32043163  0.17929212  0.41844564    -0.08800
C498        C  0.29263787  0.18343677  0.40149735     0.07400
C499        C  0.28618846  0.18042457  0.34526751    -0.02500
C500        C  0.30752656  0.17520893  0.30755663    -0.07000
C501        C  0.33354009  0.16545565  0.32450880     0.06500
C502        C  0.34090990  0.17001955  0.38059904    -0.02000
Br503      Br  0.37865821  0.16660824  0.40710043    -0.01700
H504        H  0.32637163  0.18422439  0.46071171     0.10500
H505        H  0.30390224  0.18021436  0.26530754     0.08500
Br506      Br  0.24920774  0.18348230  0.31585631    -0.02100
C507        C  0.32311095  0.32595575  0.57933054    -0.08800
C508        C  0.30087614  0.31179586  0.60414378     0.07400
C509        C  0.29937769  0.31008117  0.66220551    -0.02500
C510        C  0.31758363  0.32585214  0.69409048    -0.07000
C511        C  0.33661427  0.34415833  0.66959696     0.06500
C512        C  0.34205004  0.34088932  0.61208280    -0.02000
Br513      Br  0.37655573  0.35196628  0.57714980    -0.01700
H514        H  0.32618283  0.32467047  0.53486922     0.10500
H515        H  0.31734475  0.32287656  0.73816103     0.08500
Br516      Br  0.27352168  0.28698643  0.70211846    -0.02100
C517        C  0.42722059  0.43035795  0.77111283    -0.08800
C518        C  0.40769573  0.41411844  0.80028067     0.07400
C519        C  0.41141891  0.41139121  0.85741619    -0.02500
C520        C  0.42687448  0.43159355  0.88549985    -0.07000
C521        C  0.44242643  0.45155375  0.85666575     0.06500
C522        C  0.44432295  0.44940857  0.79851875    -0.02000
Br523      Br  0.46884209  0.47142240  0.75295439    -0.01700
H524        H  0.42924973  0.42836779  0.72664592     0.10500
H525        H  0.42710592  0.43146076  0.92991173     0.08500
Br526      Br  0.40194385  0.37797912  0.89633476    -0.02100
C527        C  0.42344244  0.08646371  0.90950478    -0.08800
C528        C  0.42047654  0.05777504  0.89971692     0.07400
C529        C  0.40362902  0.04770011  0.85676698    -0.02500
C530        C  0.39177598  0.06642482  0.82113430    -0.07000
C531        C  0.39707651  0.09531474  0.82606463     0.06500
C532        C  0.41033183  0.10538246  0.87498924    -0.02000
Br533      Br  0.40676001  0.14301601  0.90388707    -0.01700
H534        H  0.43477629  0.09402913  0.94551104     0.10500
H535        H  0.37705869  0.05807023  0.79146170     0.08500
Br536      Br  0.39600287  0.00864071  0.84447192    -0.02100
C537        C  0.33298683  0.19306162  0.68932560    -0.08800
C538        C  0.32847606  0.16422431  0.69304966     0.07400
C539        C  0.30333826  0.15274352  0.67096266    -0.02500
C540        C  0.28592986  0.16954468  0.63988028    -0.07000
C541        C  0.29288807  0.19750759  0.63167074     0.06500
C542        C  0.31689949  0.20916159  0.65542593    -0.02000
Br543      Br  0.33019173  0.24609330  0.64069201    -0.01700
H544        H  0.34793299  0.20394604  0.71470598     0.10500
H545        H  0.26640905  0.16110796  0.62384573     0.08500
Br546      Br  0.28928538  0.11592729  0.68675378    -0.02100
C547        C  0.05617707  0.42642713  0.90354752    -0.08800
C548        C  0.05435361  0.45467042  0.89026086     0.07400
C549        C  0.06975970  0.46480973  0.84521328    -0.02500
C550        C  0.08579647  0.44650508  0.81325897    -0.07000
C551        C  0.08497173  0.41752906  0.82145013     0.06500
C552        C  0.07242568  0.40801615  0.87114600    -0.02000
Br553      Br  0.08011888  0.37227255  0.90280317    -0.01700
H554        H  0.04585587  0.41897664  0.94041275     0.10500
H555        H  0.09980009  0.45555939  0.78339142     0.08500
Br556      Br  0.06872516  0.50294562  0.82224871    -0.02100
C557        C  0.18147495  0.35243829  0.68019573    -0.08800
C558        C  0.15243248  0.34775379  0.67860114     0.07400
C559        C  0.14210669  0.32935846  0.63745392    -0.02500
C560        C  0.16039710  0.31002800  0.61343530    -0.07000
C561        C  0.18922086  0.31060600  0.62573996     0.06500
C562        C  0.19999006  0.33390260  0.65489753    -0.02000
Br563      Br  0.23846528  0.34523022  0.65431982    -0.01700
H564        H  0.18992340  0.37096821  0.70035005     0.10500
H565        H  0.15224156  0.29535690  0.58285009     0.08500
Br566      Br  0.10587217  0.33320840  0.60368430    -0.02100
C567        C  0.29177692  0.34824661  0.37733717    -0.08800
C568        C  0.29941350  0.32083770  0.39031621     0.07400
C569        C  0.32040450  0.30696147  0.35816971    -0.02500
C570        C  0.33369691  0.32121048  0.31633062    -0.07000
C571        C  0.32909030  0.34966987  0.30917225     0.06500
C572        C  0.30547005  0.36222830  0.33519412    -0.02000
Br573      Br  0.28900752  0.39687434  0.31220799    -0.01700
H574        H  0.27413982  0.35840411  0.39798372     0.10500
H575        H  0.34695389  0.30949510  0.28812223     0.08500
Br576      Br  0.33238103  0.26862224  0.36564659    -0.02100
C577        C  0.42762043  0.45649057  0.15395728    -0.08800
C578        C  0.42833055  0.44730134  0.09864656     0.07400
C579        C  0.42161732  0.41946705  0.08550462    -0.02500
C580        C  0.40747826  0.40383324  0.12421934    -0.07000
C581        C  0.40315303  0.41462023  0.17791822     0.06500
C582        C  0.41809391  0.43864931  0.19454858    -0.02000
Br583      Br  0.43811783  0.44046015  0.26341148    -0.01700
H584        H  0.43802535  0.47570910  0.16633982     0.10500
H585        H  0.40015147  0.38305523  0.11276861     0.08500
Br586      Br  0.43460310  0.40055231  0.02013899    -0.02100
C587        C  0.16086223  0.19490329  0.40905972    -0.08800
C588        C  0.18060592  0.21091910  0.38004016     0.07400
C589        C  0.17994095  0.21081904  0.32206903    -0.02500
C590        C  0.16361751  0.19092316  0.29477625    -0.07000
C591        C  0.14853193  0.17057407  0.32429613     0.06500
C592        C  0.14391034  0.17573672  0.38135831    -0.02000
Br593      Br  0.11281217  0.16115041  0.42288127    -0.01700
H594        H  0.15889493  0.19676802  0.45366615     0.10500
H595        H  0.16233222  0.19196701  0.25030314     0.08500
Br596      Br  0.19952263  0.23779211  0.27816677    -0.02100
C597        C  0.03730280  0.06452747  0.19932556    -0.08800
C598        C  0.04900258  0.04870784  0.15594200     0.07400
C599        C  0.07766051  0.05192661  0.14304973    -0.02500
C600        C  0.09332144  0.07199343  0.17001539    -0.07000
C601        C  0.08086565  0.09130924  0.20626769     0.06500
C602        C  0.05315809  0.08543510  0.22562341    -0.02000
Br603      Br  0.03656113  0.10209628  0.29094238    -0.01700
H604        H  0.01583222  0.06093436  0.21220618     0.10500
H605        H  0.11567631  0.07152099  0.16343408     0.08500
Br606      Br  0.09786374  0.03108023  0.08829746    -0.02100
C607        C  0.09971206  0.61293984  0.23287938     0.30400
C608        C  0.13251394  0.64847564  0.29236775     0.30400
C609        C  0.12811303  0.62136382  0.20384022    -0.05800
C610        C  0.08654836  0.64178883  0.24626860    -0.06600
C611        C  0.10951099  0.60219158  0.28894726    -0.06500
C612        C  0.14511407  0.63902031  0.23530735    -0.05800
C613        C  0.10319201  0.65957875  0.27729838    -0.06600
C614        C  0.12667213  0.61971451  0.31960044    -0.06500
C615        C  0.16993289  0.64299947  0.20523730    -0.31900
N616        N  0.16815548  0.62976790  0.15500789     0.14600
C617        C  0.14252360  0.61687255  0.15358046    -0.31900
H618        H  0.13489947  0.60534711  0.11783792     0.16600
C619        C  0.08894347  0.68477942  0.28330038    -0.30800
N620        N  0.06408090  0.68308291  0.25588112     0.13400
C621        C  0.06268866  0.65689625  0.23240006    -0.30800
C622        C  0.13480257  0.60419096  0.36539324    -0.31100
N623        N  0.12208983  0.57842810  0.36354539     0.13900
H624        H  0.14893041  0.61115283  0.39768905     0.16500
C625        C  0.10680383  0.57720422  0.31646403    -0.31100
H626        H  0.09448866  0.55931033  0.30305324     0.16500
H627        H  0.04571510  0.64946313  0.20646564     0.16500
H628        H  0.18812956  0.65476945  0.21875682     0.16600
H629        H  0.09640491  0.70319789  0.30540781     0.16500
N630        N  0.49179369  0.71402145  0.24609797    -0.36200
N631        N  0.03642195  0.75650209  0.25135751    -0.56800
N632        N  0.49378432  0.80065079  0.24411914    -0.36200
N633        N  0.44907744  0.75818376  0.24930539    -0.56800
C634        C  0.01428383  0.69887480  0.26267410     0.27400
C635        C  0.46824919  0.69980334  0.26098715     0.27400
C636        C  0.01717422  0.81570157  0.25734550     0.27400
C637        C  0.47094163  0.81672615  0.25690581     0.27400
C638        C  0.05175895  0.73302949  0.24044460     0.36000
C639        C  0.05291691  0.77865642  0.23810956     0.36000
C640        C  0.43258680  0.73552192  0.23832428     0.36000
C641        C  0.43363936  0.78122144  0.23774339     0.36000
C642        C  0.00486593  0.67518411  0.28917858    -0.21500
C643        C  0.47589929  0.67580569  0.28818409    -0.21500
C644        C  0.00894806  0.84144825  0.27940339    -0.21500
C645        C  0.47994262  0.84214166  0.27884147    -0.21500
C646        C  0.07789137  0.74029270  0.21964994    -0.22600
C647        C  0.07856983  0.76906302  0.21783373    -0.22600
C648        C  0.40673504  0.74420996  0.21926968    -0.22600
C649        C  0.40739228  0.77302950  0.21886403    -0.22600
C650        C  0.04304184  0.70526659  0.25227077    -0.17900
C651        C  0.44007006  0.70724804  0.24854604    -0.17900
C652        C  0.44223774  0.80953135  0.24732417    -0.17900
C653        C  0.04567778  0.80736051  0.24724833    -0.17900
H654        H  0.01754879  0.65946139  0.30849448     0.15000
H655        H  0.46197065  0.66076301  0.30683574     0.15000
H656        H  0.02238814  0.85805836  0.29481532     0.15000
H657        H  0.46698234  0.85937355  0.29352557     0.15000
H658        H  0.09467939  0.72634639  0.20660096     0.13300
H659        H  0.09599257  0.78137794  0.20273059     0.13300
H660        H  0.38919048  0.73121200  0.20678954     0.13300
H661        H  0.39042083  0.78635903  0.20582417     0.13300
H662        H  0.49250551  0.73153981  0.22110953     0.26500
H663        H  0.49348851  0.78160088  0.22251695     0.26500
C664        C  0.34962881  0.86632377  0.27574609     0.30400
C665        C  0.38382431  0.89883595  0.21479761     0.30400
C666        C  0.33837618  0.87379841  0.21793195    -0.05800
C667        C  0.35738575  0.89489195  0.30270330    -0.06600
C668        C  0.37939159  0.85382189  0.26316629    -0.06500
C669        C  0.35566625  0.89073752  0.18721109    -0.05800
C670        C  0.37386933  0.91218237  0.27073112    -0.06600
C671        C  0.39642019  0.87043910  0.23088657    -0.06500
C672        C  0.34202950  0.89577366  0.13760827    -0.31900
N673        N  0.31702268  0.88182175  0.13663892     0.14600
C674        C  0.31474856  0.86825860  0.18587465    -0.31900
H675        H  0.29706428  0.85539935  0.19785772     0.16600
C676        C  0.37552320  0.93757387  0.29982998    -0.30800
N677        N  0.36297399  0.93525256  0.35041763     0.13400
C678        C  0.35183178  0.90906557  0.35232435    -0.30800
C679        C  0.42158599  0.85626630  0.22162292    -0.31100
N680        N  0.42087069  0.83157928  0.24882928     0.13900
H681        H  0.43902044  0.86334260  0.19647000     0.16500
C682        C  0.39572277  0.83054916  0.27604872    -0.31100
H683        H  0.39039801  0.81402039  0.30412133     0.16500
H684        H  0.34011350  0.90102643  0.38713275     0.16500
H685        H  0.34963648  0.90895736  0.10479691     0.16600
H686        H  0.38496793  0.95664334  0.28529892     0.16500
N687        N  0.12012787  0.50476896  0.41569028    -0.36200
N688        N  0.11971082  0.96036080  0.49725549    -0.56800
N689        N  0.11577928  0.50345191  0.58676920    -0.36200
N690        N  0.12190010  0.54769720  0.50547018    -0.56800
C691        C  0.12626272  0.98203115  0.38291026     0.27400
C692        C  0.12752086  0.52811862  0.38753840     0.27400
C693        C  0.12154009  0.98001665  0.61556771     0.27400
C694        C  0.12204389  0.52598566  0.61976915     0.27400
C695        C  0.11517978  0.94468155  0.45055117     0.36000
C696        C  0.11316031  0.94403337  0.54103986     0.36000
C697        C  0.11652111  0.56378837  0.46108801     0.36000
C698        C  0.11409313  0.56296873  0.55104868     0.36000
C699        C  0.13792165  0.99115491  0.33375848    -0.21500
C700        C  0.13861895  0.52005781  0.33651408    -0.21500
C701        C  0.13183961  0.98784170  0.66712956    -0.21500
C702        C  0.13214398  0.51670450  0.66975520    -0.21500
C703        C  0.10560594  0.91840266  0.46497908    -0.22600
C704        C  0.10436592  0.91797880  0.52195247    -0.22600
C705        C  0.10494803  0.58899850  0.47859885    -0.22600
C706        C  0.10352694  0.58857608  0.53539593    -0.22600
C707        C  0.12064891  0.95334451  0.39516545    -0.17900
C708        C  0.12269446  0.55650711  0.40500730    -0.17900
C709        C  0.11764252  0.55463168  0.60672228    -0.17900
C710        C  0.11632634  0.95178010  0.59801147    -0.17900
H711        H  0.14554354  0.97830395  0.29965864     0.15000
H712        H  0.14648397  0.53359296  0.30449546     0.15000
H713        H  0.13865036  0.97420168  0.69961822     0.15000
H714        H  0.13921988  0.52934550  0.70453081     0.15000
H715        H  0.09975171  0.90133350  0.43743250     0.13300
H716        H  0.09750055  0.90047678  0.54639503     0.13300
H717        H  0.09746552  0.60562405  0.45301396     0.13300
H718        H  0.09510372  0.60504831  0.56197776     0.13300
H719        H  0.10883379  0.50455115  0.45268069     0.26500
H720        H  0.10545746  0.50399496  0.54902693     0.26500
N721        N  0.36556926  0.50755258  0.41288909    -0.36200
N722        N  0.36090917  0.96401690  0.49631170    -0.56800
N723        N  0.36659671  0.50747813  0.58403275    -0.36200
N724        N  0.36566163  0.55106594  0.50048069    -0.56800
C725        C  0.35766995  0.98500172  0.38166082     0.27400
C726        C  0.35977322  0.53080706  0.38370030     0.27400
C727        C  0.35940857  0.98464807  0.61386205     0.27400
C728        C  0.36146709  0.53064879  0.61609888     0.27400
C729        C  0.36758128  0.94850245  0.45030575     0.36000
C730        C  0.36806591  0.94846226  0.54051744     0.36000
C731        C  0.37185416  0.56671868  0.45561498     0.36000
C732        C  0.37213863  0.56686600  0.54598258     0.36000
C733        C  0.34632140  0.99411234  0.33255696    -0.21500
C734        C  0.34775955  0.52294907  0.33373815    -0.21500
C735        C  0.34942422  0.99345188  0.66529429    -0.21500
C736        C  0.35067677  0.52233745  0.66669462    -0.21500
C737        C  0.37926240  0.92329699  0.46553106    -0.22600
C738        C  0.37966830  0.92339296  0.52241419    -0.22600
C739        C  0.38249419  0.59238010  0.47280633    -0.22600
C740        C  0.38258899  0.59253020  0.52981105    -0.22600
C741        C  0.36248994  0.95650825  0.39480412    -0.17900
C742        C  0.36655075  0.55880357  0.39949396    -0.17900
C743        C  0.36749044  0.55896616  0.60191820    -0.17900
C744        C  0.36344181  0.95611656  0.59707265    -0.17900
H745        H  0.33795064  0.98134657  0.29912329     0.15000
H746        H  0.34073730  0.53656406  0.30137195     0.15000
H747        H  0.34197401  0.98044438  0.69851601     0.15000
H748        H  0.34421340  0.53564138  0.70118668     0.15000
H749        H  0.38746123  0.90685200  0.43862693     0.13300
H750        H  0.38856171  0.90734297  0.54763236     0.13300
H751        H  0.38972540  0.60917070  0.44698843     0.13300
H752        H  0.38980859  0.60953955  0.55623489     0.13300
H753        H  0.37719367  0.50698278  0.44913346     0.26500
H754        H  0.37718092  0.50707857  0.54618959     0.26500
C755        C  0.10125540  0.89852187  0.78179552     0.30400
C756        C  0.13376065  0.86493446  0.71614113     0.30400
C757        C  0.13081546  0.89200827  0.80427176    -0.05800
C758        C  0.08876033  0.86905350  0.76842505    -0.06600
C759        C  0.10744414  0.90946792  0.72227253    -0.06500
C760        C  0.14703828  0.87434987  0.77153650    -0.05800
C761        C  0.10587041  0.85165406  0.73616250    -0.06600
C762        C  0.12471119  0.89247096  0.68995870    -0.06500
C763        C  0.17131984  0.86873928  0.80082962    -0.31900
N764        N  0.17113883  0.88379853  0.84891612     0.14600
C765        C  0.14626721  0.89802052  0.85164102    -0.31900
H766        H  0.13958521  0.91123193  0.88613465     0.16600
C767        C  0.09217616  0.82609411  0.73079985    -0.30800
N768        N  0.06647086  0.82774281  0.75571621     0.13400
C769        C  0.06422080  0.85402621  0.77867209    -0.30800
C770        C  0.12962855  0.90575397  0.64025060    -0.31100
N771        N  0.11497282  0.93019145  0.64006652     0.13900
H772        H  0.14333795  0.89837616  0.60715100     0.16500
C773        C  0.10058286  0.93203053  0.68902586    -0.31100
H774        H  0.08614842  0.94885085  0.69914308     0.16500
H775        H  0.04593483  0.86175780  0.80102618     0.16500
H776        H  0.18777862  0.85414788  0.78911115     0.16600
H777        H  0.10004003  0.80770536  0.70901629     0.16500
N778        N  0.03673967  0.75454345  0.75123977    -0.36200
N779        N  0.49276159  0.71100129  0.75457789    -0.56800
N780        N  0.44979916  0.75405323  0.74208176    -0.36200
N781        N  0.49355864  0.79782099  0.74989239    -0.56800
C782        C  0.05181235  0.73158956  0.76498638     0.27400
C783        C  0.05213789  0.77762464  0.76502344     0.27400
C784        C  0.43390127  0.73152632  0.75613481     0.27400
C785        C  0.43421196  0.77749418  0.75189476     0.27400
C786        C  0.01585369  0.69531038  0.74285315     0.36000
C787        C  0.47021213  0.69487013  0.74126951     0.36000
C788        C  0.01685857  0.81346032  0.73994884     0.36000
C789        C  0.47125101  0.81298949  0.73284095     0.36000
C790        C  0.07706769  0.74017923  0.78788770    -0.21500
C791        C  0.07722515  0.76911534  0.78813526    -0.21500
C792        C  0.40797298  0.74090708  0.77539979    -0.21500
C793        C  0.40815872  0.76976402  0.77265467    -0.21500
C794        C  0.00787391  0.66955314  0.72128630    -0.22600
C795        C  0.47901740  0.66910782  0.72076271    -0.22600
C796        C  0.00929086  0.83841081  0.71599754    -0.22600
C797        C  0.48051959  0.83808815  0.71139318    -0.22600
C798        C  0.04400393  0.70315306  0.75442297    -0.17900
C799        C  0.04478307  0.80598760  0.75412505    -0.17900
C800        C  0.44252228  0.80551728  0.74028870    -0.17900
C801        C  0.44175086  0.70274987  0.74925552    -0.17900
H802        H  0.09370525  0.72699006  0.80294785     0.15000
H803        H  0.09401055  0.78232537  0.80353466     0.15000
H804        H  0.39067378  0.72835427  0.79032640     0.15000
H805        H  0.39105409  0.78345102  0.78510508     0.15000
H806        H  0.02151217  0.65311374  0.70609772     0.13300
H807        H  0.46606219  0.65202583  0.70570823     0.13300
H808        H  0.02302834  0.85501066  0.70239456     0.13300
H809        H  0.46792131  0.85449063  0.69388996     0.13300
H810        H  0.01832265  0.75428466  0.72838058     0.26500
H811        H  0.46916653  0.75339174  0.72178478     0.26500
C812        C  0.34881183  0.64692633  0.72493257     0.30400
C813        C  0.38167076  0.61416012  0.78748072     0.30400
C814        C  0.35736297  0.61875999  0.69731479    -0.05800
C815        C  0.37823365  0.65948507  0.73965430    -0.06600
C816        C  0.33639307  0.63889047  0.78141223    -0.06500
C817        C  0.37438707  0.60196410  0.72883366    -0.05800
C818        C  0.39491464  0.64277027  0.77248112    -0.06600
C819        C  0.35291652  0.62194837  0.81261662    -0.06500
C820        C  0.38135176  0.57884959  0.69529207    -0.31900
N821        N  0.36793843  0.58049719  0.64582322     0.14600
C822        C  0.35377549  0.60527115  0.64637532    -0.31900
H823        H  0.34142270  0.61282238  0.61237261     0.16600
C824        C  0.42066103  0.65641294  0.77828666    -0.30800
N825        N  0.42009293  0.68099565  0.75049171     0.13400
C826        C  0.39503549  0.68203212  0.72425310    -0.30800
C827        C  0.33824268  0.61658833  0.86113182    -0.31100
N828        N  0.31322233  0.63043119  0.86075616     0.13900
H829        H  0.34538603  0.60363716  0.89446408     0.16500
C830        C  0.31200912  0.64421949  0.81191259    -0.31100
H831        H  0.29469472  0.65728503  0.79946787     0.16500
H832        H  0.39037127  0.69770825  0.69406211     0.16500
H833        H  0.39535558  0.56196601  0.70572416     0.16600
H834        H  0.43857308  0.64889409  0.80090662     0.16500
N835        N  0.24473118  0.87950408  0.07588385    -0.36200
N836        N  0.28868590  0.88502020  0.99082650    -0.56800
N837        N  0.24483244  0.88197594  0.90509633    -0.36200
N838        N  0.20113911  0.88194920  0.99100089    -0.56800
C839        C  0.26731712  0.88674663  0.10710947     0.27400
C840        C  0.22129037  0.88506139  0.10664312     0.27400
C841        C  0.26785279  0.88850785  0.87413355     0.27400
C842        C  0.22159433  0.88797219  0.87496691     0.27400
C843        C  0.30459727  0.87891202  0.03571907     0.36000
C844        C  0.30469090  0.87951939  0.94488424     0.36000
C845        C  0.18525210  0.87482815  0.03532250     0.36000
C846        C  0.18513043  0.87696733  0.94580495     0.36000
C847        C  0.25803286  0.89737798  0.15775432    -0.21500
C848        C  0.22908714  0.89625133  0.15754227    -0.21500
C849        C  0.25905034  0.89880677  0.82389349    -0.21500
C850        C  0.23003354  0.89841910  0.82438370    -0.21500
C851        C  0.33071705  0.86946805  0.01805688    -0.22600
C852        C  0.33065664  0.86965644  0.96097040    -0.22600
C853        C  0.15926488  0.86511447  0.01817376    -0.22600
C854        C  0.15919386  0.86647591  0.96149068    -0.22600
C855        C  0.29605198  0.88238334  0.09241282    -0.17900
C856        C  0.19312071  0.87890744  0.09121027    -0.17900
C857        C  0.19300498  0.88306484  0.89074505    -0.17900
C858        C  0.29654917  0.88397666  0.88869276    -0.17900
H859        H  0.27076627  0.90528314  0.19141986     0.15000
H860        H  0.21537369  0.90302135  0.19112121     0.15000
H861        H  0.27213214  0.90604068  0.79024098     0.15000
H862        H  0.21670131  0.90519731  0.79116464     0.15000
H863        H  0.34784363  0.86245777  0.04347393     0.13300
H864        H  0.34752373  0.86243058  0.93431961     0.13300
H865        H  0.14211148  0.85777066  0.04373578     0.13300
H866        H  0.14206868  0.86017462  0.93490650     0.13300
H867        H  0.24534624  0.86854908  0.03834888     0.26500
H868        H  0.24507658  0.87142847  0.94220530     0.26500
N869        N  0.24149280  0.63034567  0.09321248    -0.36200
N870        N  0.28481664  0.62788250  0.00572762    -0.56800
N871        N  0.24049239  0.63304762  0.92222765    -0.36200
N872        N  0.19706488  0.63013878  0.00917254    -0.56800
C873        C  0.26468968  0.62251311  0.12189216     0.27400
C874        C  0.21830881  0.62403296  0.12416233     0.27400
C875        C  0.26328199  0.62590261  0.89069268     0.27400
C876        C  0.21718712  0.62656480  0.89242640     0.27400
C877        C  0.30113137  0.63312471  0.05061486     0.36000
C878        C  0.30033492  0.63475577  0.96054421     0.36000
C879        C  0.18136655  0.63555221  0.05544168     0.36000
C880        C  0.18098276  0.63670895  0.96496172     0.36000
C881        C  0.25596220  0.61075180  0.17117433    -0.21500
C882        C  0.22694365  0.61186553  0.17273713    -0.21500
C883        C  0.25435526  0.61449966  0.84081083    -0.21500
C884        C  0.22540372  0.61476182  0.84202212    -0.21500
C885        C  0.32685741  0.64374607  0.03369020    -0.22600
C886        C  0.32637607  0.64466375  0.97685205    -0.22600
C887        C  0.15538558  0.64589329  0.04038340    -0.22600
C888        C  0.15515578  0.64663520  0.98339930    -0.24800
C889        C  0.29349675  0.62726155  0.10634836    -0.17900
C890        C  0.18961570  0.62992021  0.11085420    -0.17900
C891        C  0.18876786  0.63226505  0.90826241    -0.17900
C892        C  0.29191513  0.63062051  0.90466519    -0.17900
H893        H  0.26910515  0.60211771  0.20291426     0.15000
H894        H  0.21371461  0.60426132  0.20583160     0.15000
H895        H  0.26733334  0.60641335  0.80725079     0.15000
H896        H  0.21197670  0.60672028  0.80960572     0.15000
H897        H  0.34413520  0.65058239  0.05938950     0.13300
H898        H  0.34320605  0.65213811  0.95064660     0.13300
H899        H  0.13835652  0.65249881  0.06750500     0.13300
H900        H  0.13793109  0.65388809  0.95852483     0.13300
H901        H  0.24156978  0.64192262  0.05717605     0.26500
H902        H  0.24088588  0.64428827  0.95953673     0.26500
C903        C  0.38679072  0.89699136  0.76840126     0.30400
C904        C  0.35315290  0.86381100  0.70602527     0.30400
C905        C  0.35824292  0.88955891  0.79622686    -0.05800
C906        C  0.37687439  0.90981296  0.71329022    -0.06600
C907        C  0.39908256  0.86846364  0.75125974    -0.06500
C908        C  0.34094001  0.87228403  0.76450200    -0.05800
C909        C  0.35957453  0.89292004  0.68146967    -0.06600
C910        C  0.38210966  0.85157931  0.71945412    -0.06500
C911        C  0.31610214  0.86917023  0.79509654    -0.31900
N912        N  0.31797978  0.88332834  0.84450214     0.14600
C913        C  0.34340656  0.89654523  0.84458124    -0.31900
H914        H  0.35050357  0.91052501  0.87730423     0.16600
C915        C  0.35156660  0.90861099  0.63615166    -0.30800
N916        N  0.36407836  0.93433230  0.63891468     0.13400
C917        C  0.37896048  0.93536616  0.68673166    -0.30800
C918        C  0.39613601  0.82631266  0.71141904    -0.31100
N919        N  0.42127815  0.82750791  0.73810291     0.13900
H920        H  0.38840574  0.80828882  0.68841594     0.16500
C921        C  0.42303026  0.85331751  0.76281688    -0.31100
H922        H  0.44025264  0.86040401  0.78849016     0.16500
H923        H  0.39045216  0.95360002  0.70106080     0.16500
H924        H  0.29747852  0.85796934  0.78214721     0.16600
H925        H  0.33767280  0.90175138  0.60337916     0.16500
C926        C  0.38529956  0.61413835  0.22143957     0.30400
C927        C  0.35118176  0.64752643  0.28511691     0.30400
C928        C  0.37706476  0.60270834  0.27854461    -0.05800
C929        C  0.39686545  0.64385291  0.23478187    -0.06600
C930        C  0.35618283  0.62127716  0.19512780    -0.06500
C931        C  0.35957261  0.61944380  0.31049090    -0.05800
C932        C  0.37952301  0.66070703  0.26764036    -0.06600
C933        C  0.33837354  0.63754126  0.22850547    -0.06500
C934        C  0.35345671  0.60491428  0.35835437    -0.31900
N935        N  0.36740118  0.58005464  0.35696651     0.14600
C936        C  0.38173755  0.57846874  0.30792444    -0.31900
H937        H  0.39450845  0.56086508  0.29438199     0.16600
C938        C  0.39325872  0.68613927  0.27541985    -0.30800
N939        N  0.41846676  0.68540604  0.24810913     0.13400
C940        C  0.42050773  0.65977797  0.22240987    -0.30800
C941        C  0.31299727  0.63938303  0.19987247    -0.31100
N942        N  0.31536669  0.62719218  0.14897610     0.13900
H943        H  0.29336631  0.64803381  0.21429059     0.16500
C944        C  0.34183087  0.61630804  0.14543363    -0.31100
H945        H  0.35004765  0.60578171  0.10879387     0.16500
H946        H  0.43812746  0.65308916  0.19686197     0.16500
H947        H  0.33959924  0.61176977  0.39162385     0.16600
H948        H  0.38559595  0.70374430  0.29996866     0.16500
C949        C  0.13485959  0.64414428  0.72599131     0.30400
C950        C  0.09997860  0.61239297  0.78721931     0.30400
C951        C  0.14600576  0.63668084  0.78337132    -0.05800
C952        C  0.10566683  0.65758507  0.73953618    -0.06600
C953        C  0.12636288  0.61577910  0.69930192    -0.06500
C954        C  0.12841045  0.62062242  0.81566684    -0.05800
C955        C  0.08830983  0.64147350  0.77249302    -0.06600
C956        C  0.10916581  0.59934854  0.73108832    -0.06500
C957        C  0.14183323  0.61887416  0.86699238    -0.31900
N958        N  0.16718176  0.63217871  0.86528432     0.14600
C959        C  0.16947542  0.64366862  0.81433783    -0.31900
H960        H  0.18702855  0.65624228  0.80056638     0.16600
C961        C  0.06407141  0.65685304  0.78334536    -0.30800
N962        N  0.06545280  0.68137789  0.75565896     0.13400
C963        C  0.09030855  0.68158097  0.72757186    -0.30800
C964        C  0.10420124  0.57474915  0.70096621    -0.31100
N965        N  0.11759548  0.57602354  0.65094554     0.13900
H966        H  0.09131080  0.55740734  0.71421018     0.16500
C967        C  0.13088889  0.60130255  0.64958512    -0.31100
H968        H  0.14327720  0.60857379  0.61496836     0.16500
H969        H  0.09588230  0.69780044  0.69896504     0.16500
H970        H  0.13384835  0.60925064  0.90395532     0.16600
H971        H  0.04652213  0.65047927  0.80894490     0.16500
C972        C  0.13805994  0.86409347  0.27405805     0.30400
C973        C  0.10524062  0.89681660  0.21135427     0.30400
C974        C  0.14998370  0.87085999  0.21579515    -0.05800
C975        C  0.10894870  0.85137841  0.25916390    -0.06600
C976        C  0.13060340  0.89305506  0.29995679    -0.06500
C977        C  0.13338192  0.88797951  0.18506080    -0.05800
C978        C  0.09176718  0.86838989  0.22814828    -0.06600
C979        C  0.11336440  0.90968788  0.26854386    -0.06500
C980        C  0.14701559  0.89248791  0.13506964    -0.31900
N981        N  0.17151498  0.87803405  0.13399885     0.14600
C982        C  0.17290179  0.86376209  0.18187648    -0.31900
H983        H  0.18946878  0.84901412  0.19019045     0.16600
C984        C  0.06625561  0.85425099  0.22254389    -0.30800
N985        N  0.06787209  0.82869084  0.24636025     0.13400
C986        C  0.09406519  0.82680133  0.26849991    -0.30800
C987        C  0.10742578  0.93356283  0.30069998    -0.31100
N988        N  0.12123479  0.93227133  0.35002969     0.13900
H989        H  0.09384094  0.95057862  0.28904117     0.16500
C990        C  0.13547078  0.90744028  0.34954004    -0.31100
H991        H  0.14822665  0.90010962  0.38316602     0.16500
H992        H  0.10166873  0.80888258  0.29056098     0.16500
H993        H  0.13979833  0.90562093  0.10209084     0.16600
H994        H  0.04748726  0.86200672  0.20320826     0.16500
O995        O  0.02207244  0.50886805  0.12816742    -0.79800
O996        O  0.46224535  0.53669429  0.92878978    -0.79800
O997        O  0.02092282  0.55111850  0.96385816    -0.79800
O998        O  0.45693964  0.54147156  0.04680297    -0.79700
O999        O  0.01375452  0.52433643  0.89253523    -0.79800
O1000       O  0.46505181  0.51288974  0.11660251    -0.79800
O1001       O  0.42211569  0.52223054  0.96494555    -0.79800
O1002       O  0.02730188  0.54393621  0.07154692    -0.79800
C1003       C  0.03086256  0.53338252  0.11799498     1.09900
C1004       C  0.43537899  0.53829733  0.93317423     1.09800
C1005       C  0.02287313  0.54689508  0.91286857     1.10000
C1006       C  0.45507812  0.53565163  0.09749655     1.09800
O1007       O  0.46808960  0.95908239  0.04989035    -0.79800
O1008       O  0.01159964  0.96832728  0.93146607    -0.79800
O1009       O  0.05476661  0.99068396  0.05125218    -0.79800
O1010       O  0.45219177  0.97570008  0.94136461    -0.79700
O1011       O  0.47207521  0.99100115  0.86514763    -0.79800
O1012       O  0.02175102  0.95910240  0.05756357    -0.79800
O1013       O  0.43411826  0.98796883  0.04708679    -0.79700
O1014       O  0.04807861  0.99620157  0.94273586    -0.79800
Co1015     Co  0.49401325  0.48536995  0.08485038     1.51500
Co1016     Co  0.48681997  0.50115585  0.93433765     1.51700
Co1017     Co  0.03575940  0.52052376  0.00740683     1.51600
Co1018     Co  0.45664238  0.51019387  0.99415404     1.51500
O1019       O  0.49700993  0.50499499  0.01335089    -1.41700
C1020       C  0.44314223  0.96448775  0.06009280     1.09900
C1021       C  0.03734928  0.97350757  0.92456231     1.10000
C1022       C  0.04702778  0.96577899  0.06067178     1.09900
C1023       C  0.45605143  0.97382621  0.88852367     1.09900
O1024       O  0.22704968  0.72886101  0.38897453    -0.79800
O1025       O  0.22962622  0.78082971  0.61367860    -0.79800
O1026       O  0.21654698  0.68846590  0.53664622    -0.79800
O1027       O  0.20286141  0.78923872  0.44125957    -0.79700
O1028       O  0.21168857  0.72873601  0.58250504    -0.79800
O1029       O  0.23453955  0.78297859  0.37654953    -0.79800
O1030       O  0.20137243  0.78595549  0.54654209    -0.79800
O1031       O  0.19959883  0.72741061  0.46292714    -0.79800
C1032       C  0.20307228  0.72442576  0.41144543     1.09900
C1033       C  0.20718979  0.79096818  0.59550180     1.09800
C1034       C  0.20596669  0.70253670  0.57634584     1.10000
C1035       C  0.21029142  0.79115118  0.39189651     1.09800
O1036       O  0.28707423  0.78063337  0.43740680    -0.79800
O1037       O  0.26082845  0.73421119  0.63372966    -0.79800
O1038       O  0.25029696  0.69571144  0.45008552    -0.79800
O1039       O  0.25889252  0.81035872  0.55342138    -0.79700
O1040       O  0.28330386  0.77137662  0.56281256    -0.79800
O1041       O  0.28334430  0.72602545  0.44361328    -0.79800
O1042       O  0.25772495  0.81549495  0.44340916    -0.79700
O1043       O  0.26734092  0.71104135  0.55387651    -0.79800
Co1044     Co  0.25832075  0.75444211  0.41475380     1.51500
Co1045     Co  0.24871868  0.75017130  0.56818996     1.51700
Co1046     Co  0.23231166  0.72098783  0.50777705     1.51600
Co1047     Co  0.23003887  0.79876731  0.49647054     1.51500
O1048       O  0.24282591  0.75965694  0.48995679    -1.41700
C1049       C  0.28138583  0.80556562  0.42828274     1.09900
C1050       C  0.27274635  0.71499975  0.60555071     1.10000
C1051       C  0.27501755  0.70159544  0.43562256     1.09900
C1052       C  0.28065088  0.79737284  0.56972937     1.09900
C1053       C  0.08847419  0.95685808  0.11658591    -0.08800
C1054       C  0.06581430  0.94608155  0.08693332     0.07400
C1055       C  0.05837452  0.91782850  0.09309885    -0.02500
C1056       C  0.07136799  0.90243132  0.13347563    -0.07000
C1057       C  0.09032118  0.91493402  0.17085691     0.06500
C1058       C  0.10091082  0.94176336  0.15799355    -0.02000
Br1059     Br  0.13468736  0.95800380  0.18792163    -0.01700
H1060       H  0.09614154  0.97747399  0.10912980     0.10500
H1061       H  0.06758271  0.88028659  0.13260074     0.08500
Br1062     Br  0.03111858  0.89858518  0.04797032    -0.02100
C1063       C  0.16371795  0.81029223  0.37482736    -0.08800
C1064       C  0.19184347  0.80716403  0.35696348     0.07400
C1065       C  0.20291213  0.82549571  0.31777556    -0.02500
C1066       C  0.18593529  0.84646917  0.29828179    -0.07000
C1067       C  0.15696775  0.84687194  0.30946457     0.06500
C1068       C  0.14668577  0.83087906  0.35338855    -0.02000
Br1069     Br  0.11244845  0.83954514  0.39308533    -0.01700
H1070       H  0.15547171  0.79798158  0.40850175     0.10500
H1071       H  0.19579056  0.86284344  0.27494518     0.08500
Br1072     Br  0.24087846  0.82439479  0.29019874    -0.02100
C1073       C  0.19518894  0.66112216  0.62944721    -0.08800
C1074       C  0.18847271  0.68874190  0.61664521     0.07400
C1075       C  0.16791485  0.70317881  0.64778413    -0.02500
C1076       C  0.15291618  0.68908398  0.68756130    -0.07000
C1077       C  0.15604187  0.66025212  0.69331530     0.06500
C1078       C  0.17984744  0.64706320  0.66914021    -0.02000
Br1079     Br  0.19408766  0.61121642  0.69087494    -0.01700
H1080       H  0.21290925  0.65067634  0.60962921     0.10500
H1081       H  0.13944760  0.70111400  0.71477188     0.08500
Br1082     Br  0.15773563  0.74135068  0.63722324    -0.02100
C1083       C  0.08850253  0.57929395  0.86219163    -0.08800
C1084       C  0.07939091  0.59402059  0.81672568     0.07400
C1085       C  0.05157970  0.58932129  0.79765501    -0.02500
C1086       C  0.03264894  0.57472152  0.83060227    -0.07000
C1087       C  0.04143044  0.56414179  0.88093029     0.06500
C1088       C  0.06976248  0.56585390  0.89587275    -0.02000
Br1089     Br  0.08553424  0.54747601  0.95753672    -0.01700
H1090       H  0.11042327  0.57621545  0.86985895     0.10500
H1091       H  0.01137661  0.57105926  0.81649984     0.08500
Br1092     Br  0.03891670  0.59855106  0.72505808    -0.02100
C1093       C  0.44962840  0.57061551  0.17354768    -0.08800
C1094       C  0.43755114  0.55382734  0.13241420     0.07400
C1095       C  0.40834998  0.55466616  0.12475677    -0.02500
C1096       C  0.39224059  0.57374301  0.15483328    -0.07000
C1097       C  0.40448973  0.59360612  0.19061623     0.06500
C1098       C  0.43317446  0.58955022  0.20445642    -0.02000
Br1099     Br  0.45029974  0.60463686  0.27001902    -0.01700
H1100       H  0.47171837  0.56857512  0.18234189     0.10500
H1101       H  0.36979382  0.57150761  0.15230847     0.08500
Br1102     Br  0.38837376  0.52940800  0.07681598    -0.02100
C1103       C  0.32043167  0.67929176  0.41844741    -0.08800
C1104       C  0.29263773  0.68343608  0.40149945     0.07400
C1105       C  0.28618798  0.68042362  0.34526974    -0.02500
C1106       C  0.30752598  0.67520821  0.30755861    -0.07000
C1107       C  0.33353971  0.66545526  0.32451021     0.06500
C1108       C  0.34090978  0.67001920  0.38060040    -0.02000
Br1109     Br  0.37865817  0.66660783  0.40710126    -0.01700
H1110       H  0.32637190  0.68422412  0.46071329     0.10500
H1111       H  0.30390138  0.68021356  0.26530961     0.08500
Br1112     Br  0.24920693  0.68348043  0.31585921    -0.02100
C1113       C  0.32311095  0.82595605  0.57932972    -0.08800
C1114       C  0.30087600  0.81179645  0.60414302     0.07400
C1115       C  0.29937739  0.81008211  0.66220476    -0.02500
C1116       C  0.31758345  0.82585298  0.69408959    -0.07000
C1117       C  0.33661427  0.84415887  0.66959590     0.06500
C1118       C  0.34205006  0.84088967  0.61208182    -0.02000
Br1119     Br  0.37655576  0.85196643  0.57714866    -0.01700
H1120       H  0.32618294  0.82467046  0.53486844     0.10500
H1121       H  0.31734454  0.82287741  0.73816011     0.08500
Br1122     Br  0.27352099  0.78698795  0.70211803    -0.02100
C1123       C  0.42722055  0.93035890  0.77111104    -0.08800
C1124       C  0.40769600  0.91411901  0.80027894     0.07400
C1125       C  0.41141940  0.91139158  0.85741444    -0.02500
C1126       C  0.42687510  0.93159382  0.88549810    -0.07000
C1127       C  0.44242667  0.95155434  0.85666413     0.06500
C1128       C  0.44432279  0.94940964  0.79851702    -0.02000
Br1129     Br  0.46884096  0.97142446  0.75295274    -0.01700
H1130       H  0.42925007  0.92836827  0.72664424     0.10500
H1131       H  0.42710732  0.93146058  0.92990993     0.08500
Br1132     Br  0.40194415  0.87797944  0.89633280    -0.02100
C1133       C  0.42344124  0.58646321  0.90950631    -0.08800
C1134       C  0.42047561  0.55777457  0.89971823     0.07400
C1135       C  0.40362841  0.54769969  0.85676810    -0.02500
C1136       C  0.39177553  0.56642449  0.82113543    -0.07000
C1137       C  0.39707583  0.59531442  0.82606609     0.06500
C1138       C  0.41033078  0.60538202  0.87499089    -0.02000
Br1139     Br  0.40675865  0.64301546  0.90388917    -0.01700
H1140       H  0.43477479  0.59402860  0.94551293     0.10500
H1141       H  0.37705845  0.55806987  0.79146251     0.08500
Br1142     Br  0.39600256  0.50864026  0.84447272    -0.02100
C1143       C  0.33298600  0.69306154  0.68932857    -0.08800
C1144       C  0.32847540  0.66422420  0.69305138     0.07400
C1145       C  0.30333786  0.65274356  0.67096352    -0.02500
C1146       C  0.28592971  0.66954498  0.63988110    -0.07000
C1147       C  0.29288780  0.69750805  0.63167285     0.06500
C1148       C  0.31689885  0.70916193  0.65542940    -0.02000
Br1149     Br  0.33019099  0.74609399  0.64069778    -0.01700
H1150       H  0.34793195  0.70394562  0.71471003     0.10500
H1151       H  0.26640902  0.66110840  0.62384583     0.08500
Br1152     Br  0.28928483  0.61592731  0.68675374    -0.02100
C1153       C  0.05617753  0.92642675  0.90354738    -0.08800
C1154       C  0.05435343  0.95466988  0.89026007     0.07400
C1155       C  0.06975879  0.96480921  0.84521131    -0.02500
C1156       C  0.08579585  0.94650484  0.81325691    -0.07000
C1157       C  0.08497172  0.91752891  0.82144887     0.06500
C1158       C  0.07242610  0.90801595  0.87114533    -0.02000
Br1159     Br  0.08012001  0.87227249  0.90280233    -0.01700
H1160       H  0.04585678  0.91897636  0.94041319     0.10500
H1161       H  0.09979932  0.95555927  0.78338923     0.08500
Br1162     Br  0.06872260  0.00294479  0.82224539    -0.02100
C1163       C  0.18147454  0.85243870  0.68019345    -0.08800
C1164       C  0.15243211  0.84775375  0.67859939     0.07400
C1165       C  0.14210632  0.82935812  0.63745249    -0.02500
C1166       C  0.16039684  0.81002785  0.61343350    -0.07000
C1167       C  0.18922061  0.81060621  0.62573812     0.06500
C1168       C  0.19998969  0.83390314  0.65489510    -0.02000
Br1169     Br  0.23846477  0.84523123  0.65431652    -0.01700
H1170       H  0.18992286  0.87096889  0.70034716     0.10500
H1171       H  0.15224132  0.79535640  0.58284892     0.08500
Br1172     Br  0.10587165  0.83320773  0.60368334    -0.02100
C1173       C  0.29177684  0.84824628  0.37733588    -0.08800
C1174       C  0.29941392  0.82083753  0.39031558     0.07400
C1175       C  0.32040550  0.80696162  0.35817003    -0.02500
C1176       C  0.33369731  0.82121055  0.31633004    -0.07000
C1177       C  0.32909026  0.84966982  0.30917085     0.06500
C1178       C  0.30546988  0.86222806  0.33519265    -0.02000
Br1179     Br  0.28900699  0.89687373  0.31220558    -0.01700
H1180       H  0.27413953  0.85840355  0.39798210     0.10500
H1181       H  0.34695434  0.80949523  0.28812168     0.08500
Br1182     Br  0.33238381  0.76862310  0.36564988    -0.02100
C1183       C  0.42761984  0.95649078  0.15395559    -0.08800
C1184       C  0.42833033  0.94730150  0.09864503     0.07400
C1185       C  0.42161727  0.91946717  0.08550313    -0.02500
C1186       C  0.40747828  0.90383316  0.12421778    -0.07000
C1187       C  0.40315286  0.91462019  0.17791661     0.06500
C1188       C  0.41809350  0.93864941  0.19454687    -0.02000
Br1189     Br  0.43811748  0.94046052  0.26340965    -0.01700
H1190       H  0.43802465  0.97570939  0.16633813     0.10500
H1191       H  0.40015150  0.88305522  0.11276676     0.08500
Br1192     Br  0.43460341  0.90055247  0.02013770    -0.02100
C1193       C  0.16086195  0.69490330  0.40906132    -0.08800
C1194       C  0.18060584  0.71091874  0.38004136     0.07400
C1195       C  0.17994090  0.71081852  0.32206981    -0.02500
C1196       C  0.16361711  0.69092298  0.29477684    -0.07000
C1197       C  0.14853132  0.67057420  0.32429714     0.06500
C1198       C  0.14390987  0.67573691  0.38135970    -0.02000
Br1199     Br  0.11281159  0.66115081  0.42288257    -0.01700
H1200       H  0.15889466  0.69676826  0.45366775     0.10500
H1201       H  0.16233184  0.69196676  0.25030367     0.08500
Br1202     Br  0.19952317  0.73779111  0.27816746    -0.02100
C1203       C  0.03730214  0.56452759  0.19932630    -0.08800
C1204       C  0.04900204  0.54870811  0.15594256     0.07400
C1205       C  0.07766002  0.55192683  0.14305059    -0.02500
C1206       C  0.09332095  0.57199344  0.17001677    -0.07000
C1207       C  0.08086507  0.59130924  0.20626899     0.06500
C1208       C  0.05315749  0.58543501  0.22562465    -0.02000
Br1209     Br  0.03656042  0.60209613  0.29094367    -0.01700
H1210       H  0.01583161  0.56093433  0.21220715     0.10500
H1211       H  0.11567586  0.57152096  0.16343578     0.08500
Br1212     Br  0.09786342  0.53108066  0.08829832    -0.02100
C1213       C  0.59971272  0.11293979  0.23287800     0.30400
C1214       C  0.63251450  0.14847558  0.29236654     0.30400
C1215       C  0.62811372  0.12136379  0.20383894    -0.05800
C1216       C  0.58654904  0.14178883  0.24626730    -0.06600
C1217       C  0.60951154  0.10219139  0.28894583    -0.06500
C1218       C  0.64511466  0.13902031  0.23530617    -0.05800
C1219       C  0.60319261  0.15957873  0.27729706    -0.06600
C1220       C  0.62667261  0.11971436  0.31959915    -0.06500
C1221       C  0.66993347  0.14299951  0.20523622    -0.31900
N1222       N  0.66815614  0.12976796  0.15500670     0.14600
C1223       C  0.64252432  0.11687252  0.15357919    -0.31900
H1224       H  0.63490029  0.10534702  0.11783662     0.16600
C1225       C  0.58894417  0.18477947  0.28329878    -0.30800
N1226       N  0.56408165  0.18308307  0.25587955     0.13400
C1227       C  0.56268945  0.15689639  0.23239865    -0.30800
C1228       C  0.63480308  0.10419068  0.36539179    -0.31100
N1229       N  0.62209028  0.07842782  0.36354384     0.13900
H1230       H  0.64893088  0.11115248  0.39768773     0.16500
C1231       C  0.60680429  0.07720394  0.31646248    -0.31100
H1232       H  0.59448925  0.05931001  0.30305145     0.16500
H1233       H  0.54571577  0.14946322  0.20646461     0.16500
H1234       H  0.68813002  0.15476968  0.21875582     0.16600
H1235       H  0.59640577  0.20319802  0.30540580     0.16500
N1236       N  0.99179436  0.21402126  0.24609764    -0.36200
N1237       N  0.53642230  0.25650227  0.25135705    -0.56800
N1238       N  0.99378446  0.30065105  0.24411996    -0.36200
N1239       N  0.94907781  0.25818379  0.24930517    -0.56800
C1240       C  0.51428452  0.19887477  0.26267288     0.27400
C1241       C  0.96824988  0.19980342  0.26098656     0.27400
C1242       C  0.51717420  0.31570168  0.25734608     0.27400
C1243       C  0.97094168  0.31672623  0.25690672     0.27400
C1244       C  0.55175945  0.23302976  0.24044388     0.36000
C1245       C  0.55291707  0.27865679  0.23810964     0.36000
C1246       C  0.93258724  0.23552189  0.23832358     0.36000
C1247       C  0.93363960  0.28122137  0.23774340     0.36000
C1248       C  0.50486672  0.17518407  0.28917746    -0.21500
C1249       C  0.97590015  0.17580566  0.28818330    -0.21500
C1250       C  0.50894789  0.34144813  0.27940447    -0.21500
C1251       C  0.97994254  0.34214183  0.27884285    -0.21500
C1252       C  0.57789181  0.24029330  0.21964949    -0.22600
C1253       C  0.57856998  0.26906362  0.21783382    -0.22600
C1254       C  0.90673538  0.24420964  0.21926843    -0.22600
C1255       C  0.90739259  0.27302926  0.21886338    -0.22600
C1256       C  0.54304249  0.20526674  0.25226962    -0.17900
C1257       C  0.94007069  0.20724806  0.24854539    -0.17900
C1258       C  0.94223778  0.30953132  0.24732494    -0.17900
C1259       C  0.54567780  0.30736080  0.24724889    -0.17900
H1260       H  0.51754974  0.15946134  0.30849288     0.15000
H1261       H  0.96197153  0.16076301  0.30683490     0.15000
H1262       H  0.52238792  0.35805821  0.29481682     0.15000
H1263       H  0.96698224  0.35937367  0.29352704     0.15000
H1264       H  0.59468017  0.22634735  0.20660073     0.13300
H1265       H  0.59599270  0.28137874  0.20273126     0.13300
H1266       H  0.88919110  0.23121154  0.20678743     0.13300
H1267       H  0.89042116  0.28635884  0.20582364     0.13300
H1268       H  0.99250614  0.23154064  0.22110883     0.26500
H1269       H  0.99348881  0.28160060  0.22251758     0.26500
C1270       C  0.84962896  0.36632372  0.27574756     0.30400
C1271       C  0.88382446  0.39883595  0.21479911     0.30400
C1272       C  0.83837632  0.37379849  0.21793355    -0.05800
C1273       C  0.85738606  0.39489179  0.30270487    -0.06600
C1274       C  0.87939163  0.35382177  0.26316742    -0.06500
C1275       C  0.85566629  0.39073765  0.18721273    -0.05800
C1276       C  0.87386967  0.41218222  0.27073280    -0.06600
C1277       C  0.89642025  0.37043901  0.23088777    -0.06500
C1278       C  0.84202958  0.39577357  0.13760967    -0.31900
N1279       N  0.81702275  0.38182172  0.13664034     0.14600
C1280       C  0.81474874  0.36825870  0.18587618    -0.31900
H1281       H  0.79706446  0.35539952  0.19785947     0.16600
C1282       C  0.87552355  0.43757363  0.29983189    -0.30800
N1283       N  0.86297439  0.43525221  0.35041960     0.13400
C1284       C  0.85183223  0.40906522  0.35232614    -0.30800
C1285       C  0.92158604  0.35626626  0.22162403    -0.31100
N1286       N  0.92087066  0.33157915  0.24883001     0.13900
H1287       H  0.93902058  0.36334265  0.19647140     0.16500
C1288       C  0.89572271  0.33054891  0.27604926    -0.31100
H1289       H  0.89039796  0.31401999  0.30412159     0.16500
H1290       H  0.84011403  0.40102594  0.38713453     0.16500
H1291       H  0.84963651  0.40895734  0.10479838     0.16600
H1292       H  0.88496805  0.45664319  0.28530069     0.16500
N1293       N  0.62012822  0.00476865  0.41568946    -0.36200
N1294       N  0.61971058  0.46036120  0.49725706    -0.56800
N1295       N  0.61577894  0.00345171  0.58676735    -0.36200
N1296       N  0.62190009  0.04769712  0.50546878    -0.56800
C1297       C  0.62626203  0.48203149  0.38291177     0.27400
C1298       C  0.62752140  0.02811840  0.38753694     0.27400
C1299       C  0.62154036  0.48001678  0.61556963     0.27400
C1300       C  0.62204345  0.02598541  0.61976739     0.27400
C1301       C  0.61517929  0.44468201  0.45055281     0.36000
C1302       C  0.61316023  0.44403370  0.54104150     0.36000
C1303       C  0.61652132  0.06378826  0.46108652     0.36000
C1304       C  0.61409288  0.06296867  0.55104727     0.36000
C1305       C  0.63792116  0.49115512  0.33375991    -0.21500
C1306       C  0.63861940  0.02005764  0.33651263    -0.21500
C1307       C  0.63184011  0.48784184  0.66713152    -0.21500
C1308       C  0.63214336  0.01670415  0.66975325    -0.21500
C1309       C  0.60560556  0.41840311  0.46498093    -0.22600
C1310       C  0.60436585  0.41797917  0.52195419    -0.22600
C1311       C  0.60494812  0.08899843  0.47859728    -0.22600
C1312       C  0.60352662  0.08857613  0.53539457    -0.22600
C1313       C  0.62064819  0.45334489  0.39516684    -0.17900
C1314       C  0.62269488  0.05650688  0.40500600    -0.17900
C1315       C  0.61764208  0.05463144  0.60672082    -0.17900
C1316       C  0.61632657  0.45178028  0.59801317    -0.17900
H1317       H  0.64554310  0.47830412  0.29966024     0.15000
H1318       H  0.64648452  0.03359276  0.30449395     0.15000
H1319       H  0.63865110  0.47420161  0.69961961     0.15000
H1320       H  0.63921922  0.02934507  0.70452893     0.15000
H1321       H  0.59975119  0.40133384  0.43743475     0.13300
H1322       H  0.59750072  0.40047704  0.54639671     0.13300
H1323       H  0.59746559  0.10562373  0.45301181     0.13300
H1324       H  0.59510325  0.10504836  0.56197628     0.13300
H1325       H  0.60883518  0.00455081  0.45267762     0.26500
H1326       H  0.60545748  0.00399480  0.54902508     0.26500
N1327       N  0.86556936  0.00755290  0.41288754    -0.36200
N1328       N  0.86090931  0.46401663  0.49631362    -0.56800
N1329       N  0.86659691  0.00747829  0.58403095    -0.36200
N1330       N  0.86566205  0.05106610  0.50047936    -0.56800
C1331       C  0.85766993  0.48500133  0.38166251     0.27400
C1332       C  0.85977345  0.03080745  0.38369870     0.27400
C1333       C  0.85940857  0.48464784  0.61386392     0.27400
C1334       C  0.86146719  0.03064895  0.61609748     0.27400
C1335       C  0.86758153  0.44850220  0.45030770     0.36000
C1336       C  0.86806607  0.44846201  0.54051935     0.36000
C1337       C  0.87185473  0.06671884  0.45561369     0.36000
C1338       C  0.87213914  0.06686603  0.54598127     0.36000
C1339       C  0.84632129  0.49411181  0.33255843    -0.21500
C1340       C  0.84775981  0.02294963  0.33373634    -0.21500
C1341       C  0.84942426  0.49345162  0.66529636    -0.21500
C1342       C  0.85067670  0.02233755  0.66669315    -0.21500
C1343       C  0.87926278  0.42329682  0.46553297    -0.22600
C1344       C  0.87966857  0.42339273  0.52241611    -0.22600
C1345       C  0.88249486  0.09238019  0.47280514    -0.22600
C1346       C  0.88258957  0.09253010  0.52980979    -0.22600
C1347       C  0.86249015  0.45650792  0.39480603    -0.17900
C1348       C  0.86655114  0.05880388  0.39949269    -0.17900
C1349       C  0.86749087  0.05896626  0.60191682    -0.17900
C1350       C  0.86344189  0.45611630  0.59707467    -0.17900
H1351       H  0.83795040  0.48134590  0.29912511     0.15000
H1352       H  0.84073768  0.03656461  0.30136996     0.15000
H1353       H  0.84197398  0.48044396  0.69851771     0.15000
H1354       H  0.84421304  0.03564159  0.70118489     0.15000
H1355       H  0.88746159  0.40685191  0.43862868     0.13300
H1356       H  0.88856210  0.40734282  0.54763424     0.13300
H1357       H  0.88972621  0.10917086  0.44698755     0.13300
H1358       H  0.88980938  0.10953922  0.55623399     0.13300
H1359       H  0.87719356  0.00698309  0.44913190     0.26500
H1360       H  0.87718066  0.00707864  0.54618908     0.26500
C1361       C  0.60125558  0.39852201  0.78179691     0.30400
C1362       C  0.63376107  0.36493467  0.71614273     0.30400
C1363       C  0.63081563  0.39200851  0.80427335    -0.05800
C1364       C  0.58876072  0.36905355  0.76842622    -0.06600
C1365       C  0.60744437  0.40946808  0.72227403    -0.06500
C1366       C  0.64703852  0.37435008  0.77153828    -0.05800
C1367       C  0.60587090  0.35165414  0.73616387    -0.06600
C1368       C  0.62471152  0.39247116  0.68996023    -0.06500
C1369       C  0.67132002  0.36873953  0.80083158    -0.31900
N1370       N  0.67113894  0.38379876  0.84891806     0.14600
C1371       C  0.64626727  0.39802067  0.85164280    -0.31900
H1372       H  0.63958514  0.41123204  0.88613640     0.16600
C1373       C  0.59217671  0.32609414  0.73080085    -0.30800
N1374       N  0.56647138  0.32774278  0.75571700     0.13400
C1375       C  0.56422125  0.35402618  0.77867292    -0.30800
C1376       C  0.62962888  0.40575419  0.64025218    -0.31100
N1377       N  0.61497314  0.43019164  0.64006819     0.13900
H1378       H  0.64333817  0.39837632  0.60715245     0.16500
C1379       C  0.60058318  0.43203076  0.68902756    -0.31100
H1380       H  0.58614884  0.44885117  0.69914491     0.16500
H1381       H  0.54593507  0.36175784  0.80102633     0.16500
H1382       H  0.68777877  0.35414813  0.78911318     0.16600
H1383       H  0.60004050  0.30770552  0.70901677     0.16500
N1384       N  0.53674036  0.25454332  0.75124002    -0.36200
N1385       N  0.99276226  0.21100119  0.75457708    -0.56800
N1386       N  0.94979988  0.25405323  0.74208142    -0.36200
N1387       N  0.99355914  0.29782098  0.74989276    -0.56800
C1388       C  0.55181314  0.23158940  0.76498644     0.27400
C1389       C  0.55213851  0.27762454  0.76502389     0.27400
C1390       C  0.93390190  0.23152625  0.75613420     0.27400
C1391       C  0.93421252  0.27749409  0.75189497     0.27400
C1392       C  0.51585450  0.19531021  0.74285221     0.36000
C1393       C  0.97021285  0.19487019  0.74126802     0.36000
C1394       C  0.51685908  0.31346028  0.73994937     0.36000
C1395       C  0.97125149  0.31298954  0.73284165     0.36000
C1396       C  0.57706854  0.24017902  0.78788800    -0.21500
C1397       C  0.57722583  0.26911518  0.78813569    -0.21500
C1398       C  0.90797358  0.24090688  0.77539943    -0.21500
C1399       C  0.90815927  0.26976387  0.77265466    -0.21500
C1400       C  0.50787488  0.16955299  0.72128443    -0.22600
C1401       C  0.97901824  0.16910797  0.72076077    -0.22600
C1402       C  0.50929147  0.33841093  0.71599843    -0.22600
C1403       C  0.98052009  0.33808831  0.71139414    -0.22600
C1404       C  0.54400461  0.20315295  0.75442256    -0.17900
C1405       C  0.54478356  0.30598757  0.75412588    -0.17900
C1406       C  0.94252278  0.30551716  0.74028902    -0.17900
C1407       C  0.94175156  0.20274991  0.74925406    -0.17900
H1408       H  0.59370620  0.22698995  0.80294793     0.15000
H1409       H  0.59401101  0.28232524  0.80353581     0.15000
H1410       H  0.89067426  0.22835398  0.79032524     0.15000
H1411       H  0.89105460  0.28345087  0.78510484     0.15000
H1412       H  0.52151310  0.15311366  0.70609544     0.13300
H1413       H  0.96606288  0.15202626  0.70570564     0.13300
H1414       H  0.52302898  0.35501077  0.70239548     0.13300
H1415       H  0.96792166  0.35449092  0.69389171     0.13300
H1416       H  0.51832345  0.25428454  0.72838080     0.26500
H1417       H  0.96916695  0.25339195  0.72178537     0.26500
C1418       C  0.84881252  0.14692651  0.72493101     0.30400
C1419       C  0.88167144  0.11416039  0.78747931     0.30400
C1420       C  0.85736354  0.11876006  0.69731357    -0.05800
C1421       C  0.87823438  0.15948528  0.73965211    -0.06600
C1422       C  0.83639403  0.13889079  0.78141110    -0.06500
C1423       C  0.87438756  0.10196413  0.72883250    -0.05800
C1424       C  0.89491531  0.14277052  0.77247921    -0.06600
C1425       C  0.85291736  0.12194871  0.81261561    -0.06500
C1426       C  0.88135223  0.07884956  0.69529094    -0.31900
N1427       N  0.86793892  0.08049724  0.64582205     0.14600
C1428       C  0.85377593  0.10527121  0.64637426    -0.31900
H1429       H  0.84142355  0.11282276  0.61237126     0.16600
C1430       C  0.92066168  0.15641311  0.77828448    -0.30800
N1431       N  0.92009356  0.18099582  0.75048960     0.13400
C1432       C  0.89503622  0.18203236  0.72425070    -0.30800
C1433       C  0.83824354  0.11658886  0.86113115    -0.31100
N1434       N  0.81322327  0.13043178  0.86075535     0.13900
H1435       H  0.84538682  0.10363778  0.89446352     0.16500
C1436       C  0.81201025  0.14421992  0.81191153    -0.31100
H1437       H  0.79469591  0.15728539  0.79946634     0.16500
H1438       H  0.89037221  0.19770844  0.69405944     0.16500
H1439       H  0.89535620  0.06196610  0.70572294     0.16600
H1440       H  0.93857360  0.14889451  0.80090513     0.16500
N1441       N  0.74473126  0.37950380  0.07588493    -0.36200
N1442       N  0.78868593  0.38501958  0.99082783    -0.56800
N1443       N  0.74483240  0.38197579  0.90509783    -0.36200
N1444       N  0.70113930  0.38194947  0.99100288    -0.56800
C1445       C  0.76731721  0.38674651  0.10711079     0.27400
C1446       C  0.72129054  0.38506149  0.10664467     0.27400
C1447       C  0.76785271  0.38850727  0.87413534     0.27400
C1448       C  0.72159434  0.38797226  0.87496915     0.27400
C1449       C  0.80459716  0.37891144  0.03572050     0.36000
C1450       C  0.80469085  0.37951842  0.94488561     0.36000
C1451       C  0.68525227  0.37482853  0.03532446     0.36000
C1452       C  0.68513053  0.37696775  0.94580704     0.36000
C1453       C  0.75803307  0.39737791  0.15775538    -0.21500
C1454       C  0.72908748  0.39625138  0.15754343    -0.21500
C1455       C  0.75905023  0.39880629  0.82389551    -0.21500
C1456       C  0.73003355  0.39841906  0.82438605    -0.21500
C1457       C  0.83071674  0.36946716  0.01805841    -0.22600
C1458       C  0.83065651  0.36965520  0.96097185    -0.22600
C1459       C  0.65926514  0.36511493  0.01817566    -0.22600
C1460       C  0.65919402  0.36647638  0.96149275    -0.22600
C1461       C  0.79605198  0.38238306  0.09241418    -0.17900
C1462       C  0.69312081  0.37890774  0.09121216    -0.17900
C1463       C  0.69300502  0.38306505  0.89074704    -0.17900
C1464       C  0.79654910  0.38397580  0.88869416    -0.17900
H1465       H  0.77076643  0.40528327  0.19142090     0.15000
H1466       H  0.71537421  0.40302185  0.19112231     0.15000
H1467       H  0.77213188  0.40603989  0.79024255     0.15000
H1468       H  0.71670140  0.40519738  0.79116703     0.15000
H1469       H  0.84784304  0.36245674  0.04347606     0.13300
H1470       H  0.84752368  0.36242916  0.93432149     0.13300
H1471       H  0.64211162  0.35777139  0.04373769     0.13300
H1472       H  0.64206868  0.36017521  0.93490879     0.13300
H1473       H  0.74534628  0.36854934  0.03835122     0.26500
H1474       H  0.74507648  0.37142818  0.94220855     0.26500
N1475       N  0.74149347  0.13034592  0.09321118    -0.36200
N1476       N  0.78481737  0.12788313  0.00572649    -0.56800
N1477       N  0.74049308  0.13304839  0.92222672    -0.36200
N1478       N  0.69706559  0.13013882  0.00917134    -0.56800
C1479       C  0.76469038  0.12251342  0.12189081     0.27400
C1480       C  0.71830950  0.12403316  0.12416114     0.27400
C1481       C  0.76328276  0.12590346  0.89069140     0.27400
C1482       C  0.71718788  0.12656529  0.89242522     0.27400
C1483       C  0.80113213  0.13312529  0.05061375     0.36000
C1484       C  0.80033563  0.13475646  0.96054312     0.36000
C1485       C  0.68136725  0.13555217  0.05544048     0.36000
C1486       C  0.68098342  0.13670879  0.96496050     0.36000
C1487       C  0.75596283  0.11075211  0.17117286    -0.21500
C1488       C  0.72694434  0.11186576  0.17273582    -0.21500
C1489       C  0.75435614  0.11450053  0.84080958    -0.21500
C1490       C  0.72540465  0.11476258  0.84202106    -0.21500
C1491       C  0.82685824  0.14374664  0.03368918    -0.22600
C1492       C  0.82637677  0.14466444  0.97685101    -0.22600
C1493       C  0.65538628  0.14589298  0.04038214    -0.22600
C1494       C  0.65515641  0.14663474  0.98339811    -0.24800
C1495       C  0.79349747  0.12726193  0.10634711    -0.17900
C1496       C  0.68961639  0.12992029  0.11085304    -0.17900
C1497       C  0.68876852  0.13226512  0.90826123    -0.17900
C1498       C  0.79191586  0.13062136  0.90466412    -0.17900
H1499       H  0.76910569  0.10211805  0.20291298     0.15000
H1500       H  0.71371543  0.10426150  0.20583043     0.15000
H1501       H  0.76733409  0.10641442  0.80724917     0.15000
H1502       H  0.71197764  0.10672073  0.80960489     0.15000
H1503       H  0.84413598  0.15058311  0.05938846     0.13300
H1504       H  0.84320665  0.15213886  0.95064537     0.13300
H1505       H  0.63835731  0.15249868  0.06750374     0.13300
H1506       H  0.63793168  0.15388762  0.95852376     0.13300
H1507       H  0.74157039  0.14192287  0.05717494     0.26500
H1508       H  0.74088641  0.14428861  0.95953485     0.26500
C1509       C  0.88679057  0.39699079  0.76840297     0.30400
C1510       C  0.85315290  0.36381046  0.70602657     0.30400
C1511       C  0.85824286  0.38955816  0.79622859    -0.05800
C1512       C  0.87687423  0.40981252  0.71329205    -0.06600
C1513       C  0.89908258  0.36846317  0.75126108    -0.06500
C1514       C  0.84094006  0.37228329  0.76450352    -0.05800
C1515       C  0.85957439  0.39291964  0.68147130    -0.06600
C1516       C  0.88210975  0.35157885  0.71945522    -0.06500
C1517       C  0.81610224  0.36916943  0.79509811    -0.31900
N1518       N  0.81797977  0.38332748  0.84450384     0.14600
C1519       C  0.84340648  0.39654439  0.84458308    -0.31900
H1520       H  0.85050327  0.41052439  0.87730584     0.16600
C1521       C  0.85156660  0.40861071  0.63615329    -0.30800
N1522       N  0.86407833  0.43433203  0.63891659     0.13400
C1523       C  0.87896039  0.43536580  0.68673365    -0.30800
C1524       C  0.89613631  0.32631233  0.71141948    -0.31100
N1525       N  0.92127849  0.32750765  0.73810332     0.13900
H1526       H  0.88840613  0.30828863  0.68841583     0.16500
C1527       C  0.92303042  0.35331715  0.76281782    -0.31100
H1528       H  0.94025249  0.36040345  0.78849208     0.16500
H1529       H  0.89045194  0.45359970  0.70106298     0.16500
H1530       H  0.79747855  0.35796880  0.78214837     0.16600
H1531       H  0.83767276  0.40175130  0.60338071     0.16500
C1532       C  0.88530019  0.11413869  0.22143861     0.30400
C1533       C  0.85118233  0.14752677  0.28511586     0.30400
C1534       C  0.87706526  0.10270866  0.27854355    -0.05800
C1535       C  0.89686611  0.14385317  0.23478114    -0.06600
C1536       C  0.85618352  0.12127747  0.19512659    -0.06500
C1537       C  0.85957310  0.11944416  0.31048987    -0.05800
C1538       C  0.87952364  0.16070726  0.26763951    -0.06600
C1539       C  0.83837424  0.13754155  0.22850435    -0.06500
C1540       C  0.85345715  0.10491472  0.35835336    -0.31900
N1541       N  0.86740166  0.08005507  0.35696550     0.14600
C1542       C  0.88173808  0.07846911  0.30792342    -0.31900
H1543       H  0.89450903  0.06086545  0.29438103     0.16600
C1544       C  0.89325939  0.18613938  0.27541910    -0.30800
N1545       N  0.91846747  0.18540612  0.24810860     0.13400
C1546       C  0.92050845  0.15977813  0.22240931    -0.30800
C1547       C  0.81299808  0.13938335  0.19987126    -0.31100
N1548       N  0.81536745  0.12719251  0.14897476     0.13900
H1549       H  0.79336711  0.14803390  0.21428992     0.16500
C1550       C  0.84183162  0.11630836  0.14543214    -0.31100
H1551       H  0.85004834  0.10578208  0.10879226     0.16500
H1552       H  0.93812824  0.15308934  0.19686155     0.16500
H1553       H  0.83959977  0.11177042  0.39162286     0.16600
H1554       H  0.88559651  0.20374452  0.29996742     0.16500
C1555       C  0.63485975  0.14414378  0.72599029     0.30400
C1556       C  0.59997896  0.11239259  0.78721868     0.30400
C1557       C  0.64600617  0.13668021  0.78336998    -0.05800
C1558       C  0.60566712  0.15758462  0.73953600    -0.06600
C1559       C  0.62636282  0.11577860  0.69930093    -0.06500
C1560       C  0.62841103  0.12062185  0.81566568    -0.05800
C1561       C  0.58831015  0.14147321  0.77249300    -0.06600
C1562       C  0.60916571  0.09934803  0.73108741    -0.06500
C1563       C  0.64183383  0.11887371  0.86699134    -0.31900
N1564       N  0.66718228  0.13217835  0.86528322     0.14600
C1565       C  0.66947575  0.14366808  0.81433654    -0.31900
H1566       H  0.68702868  0.15624199  0.80056505     0.16600
C1567       C  0.56407172  0.15685289  0.78334580    -0.30800
N1568       N  0.56545323  0.18137763  0.75565930     0.13400
C1569       C  0.59030893  0.18158044  0.72757206    -0.30800
C1570       C  0.60420077  0.07474859  0.70096530    -0.31100
N1571       N  0.61759488  0.07602313  0.65094444     0.13900
H1572       H  0.59131022  0.05740687  0.71420930     0.16500
C1573       C  0.63088844  0.10130215  0.64958399    -0.31100
H1574       H  0.64327684  0.10857334  0.61496725     0.16500
H1575       H  0.59588265  0.19779961  0.69896459     0.16500
H1576       H  0.63384892  0.10925024  0.90395435     0.16600
H1577       H  0.54652240  0.15047926  0.80894538     0.16500
C1578       C  0.63805958  0.36409406  0.27405971     0.30400
C1579       C  0.60524039  0.39681710  0.21135542     0.30400
C1580       C  0.64998349  0.37086060  0.21579697    -0.05800
C1581       C  0.60894842  0.35137887  0.25916543    -0.06600
C1582       C  0.63060296  0.39305558  0.29995821    -0.06500
C1583       C  0.63338181  0.38798007  0.18506245    -0.05800
C1584       C  0.59176698  0.36839031  0.22814931    -0.06600
C1585       C  0.61336407  0.40968827  0.26854513    -0.06500
C1586       C  0.64701564  0.39248833  0.13507149    -0.31900
N1587       N  0.67151503  0.37803449  0.13400091     0.14600
C1588       C  0.67290172  0.36376271  0.18187869    -0.31900
H1589       H  0.68946866  0.34901474  0.19019291     0.16600
C1590       C  0.56625548  0.35425136  0.22254479    -0.30800
N1591       N  0.56787205  0.32869118  0.24636118     0.13400
C1592       C  0.59406506  0.32680164  0.26850127    -0.30800
C1593       C  0.60742541  0.43356304  0.30070140    -0.31100
N1594       N  0.62123413  0.43227163  0.35003141     0.13900
H1595       H  0.59384076  0.45057889  0.28904218     0.16500
C1596       C  0.63547006  0.40744065  0.34954174    -0.31100
H1597       H  0.64822571  0.40010992  0.38316791     0.16500
H1598       H  0.60166861  0.30888284  0.29056221     0.16500
H1599       H  0.63979841  0.40562122  0.10209245     0.16600
H1600       H  0.54748707  0.36200715  0.20320938     0.16500
O1601       O  0.52207265  0.00886788  0.12816722    -0.79800
O1602       O  0.96224618  0.03669463  0.92878904    -0.79800
O1603       O  0.52092379  0.05111823  0.96385799    -0.79800
O1604       O  0.95694025  0.04147175  0.04680202    -0.79700
O1605       O  0.51375523  0.02433619  0.89253500    -0.79800
O1606       O  0.96505197  0.01288988  0.11660172    -0.79800
O1607       O  0.92211628  0.02223103  0.96494433    -0.79800
O1608       O  0.52730252  0.04393589  0.07154640    -0.79800
C1609       C  0.53086310  0.03338223  0.11799452     1.09900
C1610       C  0.93537979  0.03829777  0.93317313     1.09800
C1611       C  0.52287417  0.04689468  0.91286850     1.10000
C1612       C  0.95507870  0.03565190  0.09749565     1.09800
O1613       O  0.96808958  0.45908232  0.04989101    -0.79800
O1614       O  0.51159969  0.46832756  0.93146648    -0.79800
O1615       O  0.55476648  0.49068442  0.05125227    -0.79800
O1616       O  0.95219148  0.47569989  0.94136567    -0.79700
O1617       O  0.97207477  0.49100083  0.86514838    -0.79800
O1618       O  0.52175106  0.45910272  0.05756348    -0.79800
O1619       O  0.93411808  0.48796855  0.04708791    -0.79700
O1620       O  0.54807828  0.49620228  0.94273607    -0.79800
Co1621     Co  0.99401330  0.98536991  0.08484995     1.51500
Co1622     Co  0.98682037  0.00115592  0.93433711     1.51700
Co1623     Co  0.53575993  0.02052336  0.00740651     1.51600
Co1624     Co  0.95664280  0.01019407  0.99415309     1.51500
O1625       O  0.99701032  0.00499495  0.01335039    -1.41700
C1626       C  0.94314225  0.46448757  0.06009404     1.09900
C1627       C  0.53734925  0.47350814  0.92456263     1.10000
C1628       C  0.54702778  0.46577939  0.06067182     1.09900
C1629       C  0.95605117  0.47382584  0.88852477     1.09900
O1630       O  0.72704952  0.22886171  0.38897370    -0.79800
O1631       O  0.72962626  0.28082919  0.61367951    -0.79800
O1632       O  0.71654668  0.18846569  0.53664412    -0.79800
O1633       O  0.70286110  0.28923912  0.44126096    -0.79700
O1634       O  0.71168849  0.22873552  0.58250417    -0.79800
O1635       O  0.73453910  0.28297942  0.37655060    -0.79800
O1636       O  0.70137238  0.28595541  0.54654342    -0.79800
O1637       O  0.69959858  0.22741093  0.46292609    -0.79800
C1638       C  0.70307208  0.22442636  0.41144437     1.09900
C1639       C  0.70718982  0.29096786  0.59550318     1.09800
C1640       C  0.70596644  0.20253630  0.57634417     1.10000
C1641       C  0.71029102  0.29115189  0.39189795     1.09800
O1642       O  0.78707381  0.28063383  0.43740813    -0.79800
O1643       O  0.76082838  0.23421033  0.63372907    -0.79800
O1644       O  0.75029687  0.19571178  0.45008362    -0.79800
O1645       O  0.75889256  0.31035844  0.55342259    -0.79700
O1646       O  0.78330381  0.27137625  0.56281289    -0.79800
O1647       O  0.78334419  0.22602589  0.44361213    -0.79800
O1648       O  0.75772465  0.31549544  0.44341042    -0.79700
O1649       O  0.76734067  0.21104103  0.55387517    -0.79800
Co1650     Co  0.75832046  0.25444272  0.41475394     1.51500
Co1651     Co  0.74871855  0.25017095  0.56818987     1.51700
Co1652     Co  0.73231141  0.22098780  0.50777590     1.51600
Co1653     Co  0.73003871  0.29876747  0.49647182     1.51500
O1654       O  0.74282562  0.25965709  0.48995705    -1.41700
C1655       C  0.78138547  0.30556603  0.42828376     1.09900
C1656       C  0.77274625  0.21499914  0.60554940     1.10000
C1657       C  0.77501751  0.20159590  0.43562089     1.09900
C1658       C  0.78065099  0.29737246  0.56972992     1.09900
C1659       C  0.58847429  0.45685851  0.11658606    -0.08800
C1660       C  0.56581435  0.44608200  0.08693350     0.07400
C1661       C  0.55837455  0.41782898  0.09309932    -0.02500
C1662       C  0.57136795  0.40243193  0.13347643    -0.07000
C1663       C  0.59032105  0.41493460  0.17085783     0.06500
C1664       C  0.60091080  0.44176383  0.15799406    -0.02000
Br1665     Br  0.63468722  0.45800424  0.18792251    -0.01700
H1666       H  0.59614149  0.47747450  0.10913027     0.10500
H1667       H  0.56758266  0.38028721  0.13260176     0.08500
Br1668     Br  0.53111851  0.39858548  0.04797115    -0.02100
C1669       C  0.66371753  0.31029295  0.37482961    -0.08800
C1670       C  0.69184301  0.30716487  0.35696549     0.07400
C1671       C  0.70291172  0.32549674  0.31777781    -0.02500
C1672       C  0.68593494  0.34647023  0.29828409    -0.07000
C1673       C  0.65696740  0.34687278  0.30946664     0.06500
C1674       C  0.64668532  0.33087968  0.35339046    -0.02000
Br1675     Br  0.61244791  0.33954557  0.39308695    -0.01700
H1676       H  0.65547123  0.29798199  0.40850353     0.10500
H1677       H  0.69579016  0.36284465  0.27494777     0.08500
Br1678     Br  0.74087799  0.32439586  0.29020076    -0.02100
C1679       C  0.69518827  0.16112161  0.62944495    -0.08800
C1680       C  0.68847236  0.18874149  0.61664365     0.07400
C1681       C  0.66791481  0.20317848  0.64778340    -0.02500
C1682       C  0.65291633  0.18908369  0.68756107    -0.07000
C1683       C  0.65604187  0.16025167  0.69331424     0.06500
C1684       C  0.67984714  0.14706259  0.66913829    -0.02000
Br1685     Br  0.69408752  0.11121557  0.69087217    -0.01700
H1686       H  0.71290826  0.15067567  0.60962605     0.10500
H1687       H  0.63944796  0.20111376  0.71477204     0.08500
Br1688     Br  0.65773611  0.24135052  0.63722364    -0.02100
C1689       C  0.58850335  0.07929328  0.86219075    -0.08800
C1690       C  0.57939142  0.09402030  0.81672549     0.07400
C1691       C  0.55158005  0.08932137  0.79765568    -0.02500
C1692       C  0.53264951  0.07472157  0.83060315    -0.07000
C1693       C  0.54143147  0.06414126  0.88093032     0.06500
C1694       C  0.56976365  0.06585277  0.89587177    -0.02000
Br1695     Br  0.58553597  0.04747377  0.95753404    -0.01700
H1696       H  0.61042417  0.07621482  0.86985747     0.10500
H1697       H  0.51137691  0.07105994  0.81650168     0.08500
Br1698     Br  0.53891642  0.09855148  0.72505946    -0.02100
C1699       C  0.94962923  0.07061582  0.17354673    -0.08800
C1700       C  0.93755187  0.05382771  0.13241317     0.07400
C1701       C  0.90835061  0.05466663  0.12475563    -0.02500
C1702       C  0.89224121  0.07374345  0.15483220    -0.07000
C1703       C  0.90449035  0.09360645  0.19061530     0.06500
C1704       C  0.93317515  0.08955049  0.20445541    -0.02000
Br1705     Br  0.95030027  0.10463687  0.27001819    -0.01700
H1706       H  0.97171916  0.06857537  0.18234132     0.10500
H1707       H  0.86979445  0.07150812  0.15230711     0.08500
Br1708     Br  0.88837425  0.02940859  0.07681465    -0.02100
C1709       C  0.82043167  0.17929215  0.41844569    -0.08800
C1710       C  0.79263788  0.18343677  0.40149737     0.07400
C1711       C  0.78618847  0.18042461  0.34526749    -0.02500
C1712       C  0.80752658  0.17520894  0.30755661    -0.07000
C1713       C  0.83354012  0.16545566  0.32450881     0.06500
C1714       C  0.84090995  0.17001957  0.38059908    -0.02000
Br1715     Br  0.87865831  0.16660825  0.40710040    -0.01700
H1716       H  0.82637163  0.18422441  0.46071179     0.10500
H1717       H  0.80390236  0.18021452  0.26530750     0.08500
Br1718     Br  0.74920773  0.18348249  0.31585625    -0.02100
C1719       C  0.82311099  0.32595573  0.57933049    -0.08800
C1720       C  0.80087619  0.31179585  0.60414373     0.07400
C1721       C  0.79937776  0.31008116  0.66220552    -0.02500
C1722       C  0.81758362  0.32585217  0.69409054    -0.07000
C1723       C  0.83661428  0.34415832  0.66959697     0.06500
C1724       C  0.84205002  0.34088933  0.61208278    -0.02000
Br1725     Br  0.87655570  0.35196627  0.57714982    -0.01700
H1726       H  0.82618291  0.32467055  0.53486915     0.10500
H1727       H  0.81734445  0.32287676  0.73816113     0.08500
Br1728     Br  0.77352181  0.28698641  0.70211851    -0.02100
C1729       C  0.92722059  0.43035798  0.77111277    -0.08800
C1730       C  0.90769576  0.41411846  0.80028070     0.07400
C1731       C  0.91141899  0.41139122  0.85741625    -0.02500
C1732       C  0.92687455  0.43159361  0.88549983    -0.07000
C1733       C  0.94242649  0.45155378  0.85666563     0.06500
C1734       C  0.94432292  0.44940867  0.79851862    -0.02000
Br1735     Br  0.96884205  0.47142258  0.75295438    -0.01700
H1736       H  0.92924981  0.42836758  0.72664590     0.10500
H1737       H  0.92710635  0.43146077  0.92991171     0.08500
Br1738     Br  0.90194386  0.37797915  0.89633478    -0.02100
C1739       C  0.92344247  0.08646373  0.90950461    -0.08800
C1740       C  0.92047659  0.05777505  0.89971687     0.07400
C1741       C  0.90362911  0.04770011  0.85676699    -0.02500
C1742       C  0.89177603  0.06642483  0.82113439    -0.07000
C1743       C  0.89707651  0.09531475  0.82606470     0.06500
C1744       C  0.91033186  0.10538248  0.87498914    -0.02000
Br1745     Br  0.90676000  0.14301600  0.90388712    -0.01700
H1746       H  0.93477638  0.09402916  0.94551073     0.10500
H1747       H  0.87705868  0.05807022  0.79146193     0.08500
Br1748     Br  0.89600306  0.00864071  0.84447193    -0.02100
C1749       C  0.83298679  0.19306161  0.68932559    -0.08800
C1750       C  0.82847600  0.16422430  0.69304963     0.07400
C1751       C  0.80333813  0.15274351  0.67096253    -0.02500
C1752       C  0.78592963  0.16954464  0.63988011    -0.07000
C1753       C  0.79288797  0.19750753  0.63167068     0.06500
C1754       C  0.81689945  0.20916156  0.65542593    -0.02000
Br1755     Br  0.83019172  0.24609329  0.64069202    -0.01700
H1756       H  0.84793300  0.20394601  0.71470594     0.10500
H1757       H  0.76640874  0.16110802  0.62384567     0.08500
Br1758     Br  0.78928535  0.11592729  0.68675377    -0.02100
C1759       C  0.55617707  0.42642714  0.90354745    -0.08800
C1760       C  0.55435363  0.45467044  0.89026093     0.07400
C1761       C  0.56975968  0.46480976  0.84521328    -0.02500
C1762       C  0.58579654  0.44650517  0.81325896    -0.07000
C1763       C  0.58497182  0.41752913  0.82145008     0.06500
C1764       C  0.57242570  0.40801619  0.87114591    -0.02000
Br1765     Br  0.58011886  0.37227257  0.90280315    -0.01700
H1766       H  0.54585582  0.41897662  0.94041260     0.10500
H1767       H  0.59980002  0.45555953  0.78339125     0.08500
Br1768     Br  0.56872494  0.50294565  0.82224870    -0.02100
C1769       C  0.68147496  0.35243827  0.68019580    -0.08800
C1770       C  0.65243249  0.34775378  0.67860113     0.07400
C1771       C  0.64210668  0.32935844  0.63745388    -0.02500
C1772       C  0.66039708  0.31002798  0.61343527    -0.07000
C1773       C  0.68922084  0.31060597  0.62574002     0.06500
C1774       C  0.69999005  0.33390260  0.65489757    -0.02000
Br1775     Br  0.73846527  0.34523022  0.65431983    -0.01700
H1776       H  0.68992342  0.37096822  0.70035004     0.10500
H1777       H  0.65224154  0.29535691  0.58284999     0.08500
Br1778     Br  0.60587214  0.33320841  0.60368429    -0.02100
C1779       C  0.79177697  0.34824659  0.37733714    -0.08800
C1780       C  0.79941355  0.32083767  0.39031608     0.07400
C1781       C  0.82040463  0.30696144  0.35816958    -0.02500
C1782       C  0.83369706  0.32121040  0.31633038    -0.07000
C1783       C  0.82909041  0.34966984  0.30917221     0.06500
C1784       C  0.80547007  0.36222828  0.33519405    -0.02000
Br1785     Br  0.78900751  0.39687434  0.31220800    -0.01700
H1786       H  0.77413984  0.35840408  0.39798364     0.10500
H1787       H  0.84695432  0.30949507  0.28812246     0.08500
Br1788     Br  0.83238120  0.26862225  0.36564664    -0.02100
C1789       C  0.92762044  0.45649061  0.15395730    -0.08800
C1790       C  0.92833059  0.44730134  0.09864663     0.07400
C1791       C  0.92161733  0.41946704  0.08550466    -0.02500
C1792       C  0.90747833  0.40383319  0.12421939    -0.07000
C1793       C  0.90315301  0.41462025  0.17791820     0.06500
C1794       C  0.91809394  0.43864931  0.19454858    -0.02000
Br1795     Br  0.93811783  0.44046017  0.26341150    -0.01700
H1796       H  0.93802526  0.47570921  0.16633976     0.10500
H1797       H  0.90015148  0.38305523  0.11276848     0.08500
Br1798     Br  0.93460307  0.40055231  0.02013899    -0.02100
C1799       C  0.66086220  0.19490329  0.40905972    -0.08800
C1800       C  0.68060590  0.21091910  0.38004016     0.07400
C1801       C  0.67994092  0.21081904  0.32206903    -0.02500
C1802       C  0.66361748  0.19092317  0.29477625    -0.07000
C1803       C  0.64853190  0.17057408  0.32429614     0.06500
C1804       C  0.64391032  0.17573672  0.38135832    -0.02000
Br1805     Br  0.61281215  0.16115041  0.42288127    -0.01700
H1806       H  0.65889490  0.19676802  0.45366615     0.10500
H1807       H  0.66233218  0.19196702  0.25030314     0.08500
Br1808     Br  0.69952261  0.23779211  0.27816677    -0.02100
C1809       C  0.53730307  0.06452748  0.19932544    -0.08800
C1810       C  0.54900277  0.04870781  0.15594189     0.07400
C1811       C  0.57766068  0.05192656  0.14304973    -0.02500
C1812       C  0.59332161  0.07199341  0.17001539    -0.07000
C1813       C  0.58086577  0.09130925  0.20626759     0.06500
C1814       C  0.55315828  0.08543507  0.22562337    -0.02000
Br1815     Br  0.53656114  0.10209629  0.29094235    -0.01700
H1816       H  0.51583244  0.06093457  0.21220605     0.10500
H1817       H  0.61567650  0.07152094  0.16343436     0.08500
Br1818     Br  0.59786392  0.03108019  0.08829747    -0.02100
C1819       C  0.59971207  0.61293984  0.23287937     0.30400
C1820       C  0.63251394  0.64847562  0.29236776     0.30400
C1821       C  0.62811303  0.62136385  0.20384018    -0.05800
C1822       C  0.58654836  0.64178882  0.24626866    -0.06600
C1823       C  0.60951101  0.60219157  0.28894723    -0.06500
C1824       C  0.64511406  0.63902033  0.23530732    -0.05800
C1825       C  0.60319201  0.65957874  0.27729842    -0.06600
C1826       C  0.62667208  0.61971451  0.31960046    -0.06500
C1827       C  0.66993289  0.64299949  0.20523732    -0.31900
N1828       N  0.66815550  0.62976789  0.15500796     0.14600
C1829       C  0.64252361  0.61687257  0.15358045    -0.31900
H1830       H  0.63489949  0.60534713  0.11783789     0.16600
C1831       C  0.58894346  0.68477941  0.28330038    -0.30800
N1832       N  0.56408087  0.68308291  0.25588115     0.13400
C1833       C  0.56268867  0.65689624  0.23240008    -0.30800
C1834       C  0.63480256  0.60419094  0.36539323    -0.31100
N1835       N  0.62208983  0.57842810  0.36354540     0.13900
H1836       H  0.64893034  0.61115285  0.39768913     0.16500
C1837       C  0.60680382  0.57720423  0.31646405    -0.31100
H1838       H  0.59448859  0.55931038  0.30305332     0.16500
H1839       H  0.54571514  0.64946310  0.20646563     0.16500
H1840       H  0.68812956  0.65476945  0.21875688     0.16600
H1841       H  0.59640496  0.70319787  0.30540780     0.16500
N1842       N  0.99179369  0.71402142  0.24609806    -0.36200
N1843       N  0.53642195  0.75650211  0.25135752    -0.56800
N1844       N  0.99378433  0.80065081  0.24411917    -0.36200
N1845       N  0.94907747  0.75818378  0.24930540    -0.56800
C1846       C  0.51428380  0.69887481  0.26267414     0.27400
C1847       C  0.96824918  0.69980336  0.26098718     0.27400
C1848       C  0.51717421  0.81570155  0.25734546     0.27400
C1849       C  0.97094160  0.81672620  0.25690583     0.27400
C1850       C  0.55175893  0.73302949  0.24044461     0.36000
C1851       C  0.55291690  0.77865643  0.23810956     0.36000
C1852       C  0.93258682  0.73552194  0.23832429     0.36000
C1853       C  0.93363937  0.78122145  0.23774340     0.36000
C1854       C  0.50486588  0.67518410  0.28917850    -0.21500
C1855       C  0.97589933  0.67580572  0.28818411    -0.21500
C1856       C  0.50894809  0.84144820  0.27940335    -0.21500
C1857       C  0.97994252  0.84214175  0.27884155    -0.21500
C1858       C  0.57789137  0.74029270  0.21964995    -0.22600
C1859       C  0.57856983  0.76906304  0.21783372    -0.22600
C1860       C  0.90673509  0.74420996  0.21926972    -0.22600
C1861       C  0.90739231  0.77302949  0.21886406    -0.22600
C1862       C  0.54304179  0.70526659  0.25227074    -0.17900
C1863       C  0.94007004  0.70724804  0.24854610    -0.17900
C1864       C  0.94223772  0.80953137  0.24732415    -0.17900
C1865       C  0.54567776  0.80736052  0.24724830    -0.17900
H1866       H  0.51754874  0.65946140  0.30849446     0.15000
H1867       H  0.96197073  0.66076300  0.30683572     0.15000
H1868       H  0.52238810  0.85805836  0.29481532     0.15000
H1869       H  0.96698214  0.85937358  0.29352559     0.15000
H1870       H  0.59467941  0.72634642  0.20660096     0.13300
H1871       H  0.59599256  0.78137797  0.20273058     0.13300
H1872       H  0.88919055  0.73121198  0.20678957     0.13300
H1873       H  0.89042087  0.78635901  0.20582419     0.13300
H1874       H  0.99250552  0.73153990  0.22110938     0.26500
H1875       H  0.99348857  0.78160090  0.22251698     0.26500
C1876       C  0.84962881  0.86632376  0.27574616     0.30400
C1877       C  0.88382431  0.89883594  0.21479772     0.30400
C1878       C  0.83837618  0.87379844  0.21793195    -0.05800
C1879       C  0.85738568  0.89489189  0.30270361    -0.06600
C1880       C  0.87939162  0.85382190  0.26316639    -0.06500
C1881       C  0.85566628  0.89073756  0.18721097    -0.05800
C1882       C  0.87386927  0.91218237  0.27073131    -0.06600
C1883       C  0.89642020  0.87043909  0.23088662    -0.06500
C1884       C  0.84202952  0.89577379  0.13760800    -0.31900
N1885       N  0.81702270  0.88182183  0.13663888     0.14600
C1886       C  0.81474857  0.86825862  0.18587465    -0.31900
H1887       H  0.79706429  0.85539937  0.19785790     0.16600
C1888       C  0.87552314  0.93757385  0.29983018    -0.30800
N1889       N  0.86297386  0.93525246  0.35041790     0.13400
C1890       C  0.85183161  0.90906545  0.35232485    -0.30800
C1891       C  0.92158601  0.85626634  0.22162297    -0.31100
N1892       N  0.92087067  0.83157929  0.24882923     0.13900
H1893       H  0.93902044  0.86334262  0.19646995     0.16500
C1894       C  0.89572278  0.83054917  0.27604875    -0.31100
H1895       H  0.89039801  0.81402034  0.30412120     0.16500
H1896       H  0.84011327  0.90102635  0.38713324     0.16500
H1897       H  0.84963645  0.90895744  0.10479644     0.16600
H1898       H  0.88496788  0.95664334  0.28529915     0.16500
N1899       N  0.62012785  0.50476896  0.41569028    -0.36200
N1900       N  0.61971081  0.96036079  0.49725550    -0.56800
N1901       N  0.61577926  0.50345189  0.58676928    -0.36200
N1902       N  0.62190006  0.54769722  0.50547021    -0.56800
C1903       C  0.62626269  0.98203117  0.38291029     0.27400
C1904       C  0.62752084  0.52811862  0.38753840     0.27400
C1905       C  0.62154010  0.98001660  0.61556777     0.27400
C1906       C  0.62204389  0.52598564  0.61976916     0.27400
C1907       C  0.61517976  0.94468155  0.45055118     0.36000
C1908       C  0.61316029  0.94403335  0.54103987     0.36000
C1909       C  0.61652107  0.56378838  0.46108805     0.36000
C1910       C  0.61409310  0.56296877  0.55104874     0.36000
C1911       C  0.63792162  0.99115494  0.33375850    -0.21500
C1912       C  0.63861893  0.52005781  0.33651407    -0.21500
C1913       C  0.63183961  0.98784165  0.66712963    -0.21500
C1914       C  0.63214402  0.51670447  0.66975520    -0.21500
C1915       C  0.60560592  0.91840266  0.46497907    -0.22600
C1916       C  0.60436590  0.91797879  0.52195246    -0.22600
C1917       C  0.60494801  0.58899853  0.47859893    -0.22600
C1918       C  0.60352688  0.58857616  0.53539606    -0.22600
C1919       C  0.62064889  0.95334452  0.39516545    -0.17900
C1920       C  0.62269444  0.55650711  0.40500732    -0.17900
C1921       C  0.61764254  0.55463167  0.60672229    -0.17900
C1922       C  0.61632634  0.95178006  0.59801150    -0.17900
H1923       H  0.64554352  0.97830398  0.29965867     0.15000
H1924       H  0.64648395  0.53359295  0.30449546     0.15000
H1925       H  0.63865036  0.97420164  0.69961833     0.15000
H1926       H  0.63921989  0.52934551  0.70453077     0.15000
H1927       H  0.59975169  0.90133350  0.43743248     0.13300
H1928       H  0.59750053  0.90047677  0.54639501     0.13300
H1929       H  0.59746554  0.60562405  0.45301394     0.13300
H1930       H  0.59510347  0.60504834  0.56197780     0.13300
H1931       H  0.60883377  0.50455115  0.45268069     0.26500
H1932       H  0.60545738  0.50399494  0.54902704     0.26500
N1933       N  0.86556929  0.50755257  0.41288904    -0.36200
N1934       N  0.86090914  0.96401690  0.49631171    -0.56800
N1935       N  0.86659660  0.50747811  0.58403323    -0.36200
N1936       N  0.86566165  0.55106594  0.50048054    -0.56800
C1937       C  0.85766992  0.98500173  0.38166084     0.27400
C1938       C  0.85977331  0.53080706  0.38370024     0.27400
C1939       C  0.85940841  0.98464803  0.61386218     0.27400
C1940       C  0.86146702  0.53064877  0.61609899     0.27400
C1941       C  0.86758130  0.94850242  0.45030576     0.36000
C1942       C  0.86806585  0.94846224  0.54051742     0.36000
C1943       C  0.87185420  0.56671874  0.45561482     0.36000
C1944       C  0.87213857  0.56686588  0.54598244     0.36000
C1945       C  0.84632137  0.99411240  0.33255692    -0.21500
C1946       C  0.84775969  0.52294907  0.33373799    -0.21500
C1947       C  0.84942400  0.99345175  0.66529450    -0.21500
C1948       C  0.85067675  0.52233742  0.66669493    -0.21500
C1949       C  0.87926246  0.92329692  0.46553089    -0.22600
C1950       C  0.87966828  0.92339292  0.52241410    -0.22600
C1951       C  0.88249419  0.59238016  0.47280609    -0.22600
C1952       C  0.88258885  0.59252998  0.52981077    -0.22600
C1953       C  0.86248991  0.95650823  0.39480421    -0.17900
C1954       C  0.86655077  0.55880361  0.39949390    -0.17900
C1955       C  0.86749047  0.55896612  0.60191827    -0.17900
C1956       C  0.86344180  0.95611655  0.59707268    -0.17900
H1957       H  0.83795061  0.98134654  0.29912339     0.15000
H1958       H  0.84073762  0.53656411  0.30137171     0.15000
H1959       H  0.84197364  0.98044407  0.69851585     0.15000
H1960       H  0.84421335  0.53564149  0.70118675     0.15000
H1961       H  0.88746128  0.90685200  0.43862655     0.13300
H1962       H  0.88856159  0.90734296  0.54763247     0.13300
H1963       H  0.88972518  0.60917099  0.44698856     0.13300
H1964       H  0.88980835  0.60953920  0.55623501     0.13300
H1965       H  0.87719365  0.50698275  0.44913374     0.26500
H1966       H  0.87718081  0.50707857  0.54618868     0.26500
C1967       C  0.60125537  0.89852191  0.78179558     0.30400
C1968       C  0.63376064  0.86493447  0.71614124     0.30400
C1969       C  0.63081543  0.89200840  0.80427198    -0.05800
C1970       C  0.58876033  0.86905351  0.76842502    -0.06600
C1971       C  0.60744410  0.90946793  0.72227259    -0.06500
C1972       C  0.64703823  0.87434990  0.77153668    -0.05800
C1973       C  0.60587044  0.85165405  0.73616264    -0.06600
C1974       C  0.62471116  0.89247096  0.68995876    -0.06500
C1975       C  0.67131978  0.86873941  0.80082978    -0.31900
N1976       N  0.67113871  0.88379864  0.84891640     0.14600
C1977       C  0.64626713  0.89802068  0.85164148    -0.31900
H1978       H  0.63958509  0.91123187  0.88613544     0.16600
C1979       C  0.59217616  0.82609413  0.73079988    -0.30800
N1980       N  0.56647087  0.82774279  0.75571624     0.13400
C1981       C  0.56422081  0.85402619  0.77867212    -0.30800
C1982       C  0.62962852  0.90575395  0.64025064    -0.31100
N1983       N  0.61497279  0.93019141  0.64006654     0.13900
H1984       H  0.64333795  0.89837614  0.60715106     0.16500
C1985       C  0.60058283  0.93203052  0.68902590    -0.31100
H1986       H  0.58614841  0.94885085  0.69914318     0.16500
H1987       H  0.54593481  0.86175781  0.80102608     0.16500
H1988       H  0.68777848  0.85414786  0.78911153     0.16600
H1989       H  0.60004001  0.80770542  0.70901620     0.16500
N1990       N  0.53673935  0.75454337  0.75123928    -0.36200
N1991       N  0.99276154  0.71100135  0.75457782    -0.56800
N1992       N  0.94979916  0.75405328  0.74208176    -0.36200
N1993       N  0.99355867  0.79782102  0.74989236    -0.56800
C1994       C  0.55181241  0.73158953  0.76498630     0.27400
C1995       C  0.55213785  0.77762459  0.76502332     0.27400
C1996       C  0.93390129  0.73152637  0.75613478     0.27400
C1997       C  0.93421195  0.77749420  0.75189478     0.27400
C1998       C  0.51585373  0.69531032  0.74285316     0.36000
C1999       C  0.97021208  0.69487015  0.74126953     0.36000
C2000       C  0.51685855  0.81346026  0.73994887     0.36000
C2001       C  0.97125102  0.81298951  0.73284096     0.36000
C2002       C  0.57706767  0.74017928  0.78788763    -0.21500
C2003       C  0.57722501  0.76911534  0.78813511    -0.21500
C2004       C  0.90797299  0.74090712  0.77539977    -0.21500
C2005       C  0.90815869  0.76976406  0.77265467    -0.21500
C2006       C  0.50787395  0.66955307  0.72128626    -0.22600
C2007       C  0.97901736  0.66910786  0.72076268    -0.22600
C2008       C  0.50929082  0.83841071  0.71599762    -0.22600
C2009       C  0.98051961  0.83808820  0.71139319    -0.22600
C2010       C  0.54400389  0.70315306  0.75442292    -0.17900
C2011       C  0.54478299  0.80598754  0.75412500    -0.17900
C2012       C  0.94252227  0.80551727  0.74028868    -0.17900
C2013       C  0.94175081  0.70274991  0.74925539    -0.17900
H2014       H  0.59370546  0.72699033  0.80294760     0.15000
H2015       H  0.59401041  0.78232538  0.80353458     0.15000
H2016       H  0.89067380  0.72835430  0.79032634     0.15000
H2017       H  0.89105406  0.78345105  0.78510508     0.15000
H2018       H  0.52151221  0.65311367  0.70609759     0.13300
H2019       H  0.96606219  0.65202586  0.70570823     0.13300
H2020       H  0.52302833  0.85501063  0.70239505     0.13300
H2021       H  0.96792134  0.85449071  0.69389005     0.13300
H2022       H  0.51832339  0.75428452  0.72838169     0.26500
H2023       H  0.96916660  0.75339188  0.72178472     0.26500
C2024       C  0.84881187  0.64692634  0.72493254     0.30400
C2025       C  0.88167086  0.61416019  0.78748068     0.30400
C2026       C  0.85736302  0.61875998  0.69731482    -0.05800
C2027       C  0.87823365  0.65948517  0.73965393    -0.06600
C2028       C  0.83639324  0.63889035  0.78141228    -0.06500
C2029       C  0.87438711  0.60196406  0.72883371    -0.05800
C2030       C  0.89491457  0.64277041  0.77248089    -0.06600
C2031       C  0.85291666  0.62194833  0.81261665    -0.06500
C2032       C  0.88135191  0.57884954  0.69529211    -0.31900
N2033       N  0.86793855  0.58049716  0.64582325     0.14600
C2034       C  0.85377551  0.60527109  0.64637544    -0.31900
H2035       H  0.84142265  0.61282227  0.61237281     0.16600
C2036       C  0.92066079  0.65641316  0.77828632    -0.30800
N2037       N  0.92009276  0.68099584  0.75049125     0.13400
C2038       C  0.89503542  0.68203232  0.72425255    -0.30800
C2039       C  0.83824280  0.61658828  0.86113191    -0.31100
N2040       N  0.81322246  0.63043109  0.86075633     0.13900
H2041       H  0.84538612  0.60363698  0.89446393     0.16500
C2042       C  0.81200940  0.64421935  0.81191275    -0.31100
H2043       H  0.79469499  0.65728480  0.79946778     0.16500
H2044       H  0.89037138  0.69770830  0.69406114     0.16500
H2045       H  0.89535595  0.56196610  0.70572395     0.16600
H2046       H  0.93857273  0.64889452  0.80090684     0.16500
N2047       N  0.74473122  0.87950378  0.07588296    -0.36200
N2048       N  0.78868593  0.88502027  0.99082649    -0.56800
N2049       N  0.74483243  0.88197616  0.90509596    -0.36200
N2050       N  0.70113910  0.88194921  0.99100089    -0.56800
C2051       C  0.76731717  0.88674656  0.10710933     0.27400
C2052       C  0.72129043  0.88506127  0.10664275     0.27400
C2053       C  0.76785277  0.88850796  0.87413354     0.27400
C2054       C  0.72159431  0.88797228  0.87496701     0.27400
C2055       C  0.80459727  0.87891199  0.03571909     0.36000
C2056       C  0.80469086  0.87951941  0.94488420     0.36000
C2057       C  0.68525206  0.87482815  0.03532246     0.36000
C2058       C  0.68513043  0.87696733  0.94580500     0.36000
C2059       C  0.75803298  0.89737789  0.15775394    -0.21500
C2060       C  0.72908738  0.89625117  0.15754147    -0.21500
C2061       C  0.75905035  0.89880681  0.82389340    -0.21500
C2062       C  0.73003355  0.89841909  0.82438370    -0.21500
C2063       C  0.83071706  0.86946810  0.01805698    -0.22600
C2064       C  0.83065660  0.86965645  0.96097046    -0.22600
C2065       C  0.65926485  0.86511447  0.01817376    -0.22600
C2066       C  0.65919386  0.86647590  0.96149073    -0.22600
C2067       C  0.79605198  0.88238335  0.09241266    -0.17900
C2068       C  0.69312071  0.87890740  0.09121007    -0.17900
C2069       C  0.69300493  0.88306489  0.89074508    -0.17900
C2070       C  0.79654915  0.88397670  0.88869264    -0.17900
H2071       H  0.77076616  0.90528311  0.19141988     0.15000
H2072       H  0.71537397  0.90302129  0.19112046     0.15000
H2073       H  0.77213216  0.90604065  0.79024089     0.15000
H2074       H  0.71670132  0.90519699  0.79116448     0.15000
H2075       H  0.84784358  0.86245776  0.04347414     0.13300
H2076       H  0.84752365  0.86243050  0.93431971     0.13300
H2077       H  0.64211145  0.85777066  0.04373577     0.13300
H2078       H  0.64206868  0.86017459  0.93490659     0.13300
H2079       H  0.74534623  0.86854934  0.03835031     0.26500
H2080       H  0.74507657  0.87142878  0.94220663     0.26500
N2081       N  0.74149280  0.63034566  0.09321258    -0.36200
N2082       N  0.78481659  0.62788247  0.00572769    -0.56800
N2083       N  0.74049241  0.63304775  0.92222800    -0.36200
N2084       N  0.69706495  0.63013865  0.00917266    -0.56800
C2085       C  0.76468971  0.62251313  0.12189221     0.27400
C2086       C  0.71830882  0.62403295  0.12416244     0.27400
C2087       C  0.76328194  0.62590264  0.89069269     0.27400
C2088       C  0.71718709  0.62656471  0.89242637     0.27400
C2089       C  0.80113138  0.63312471  0.05061490     0.36000
C2090       C  0.80033484  0.63475571  0.96054429     0.36000
C2091       C  0.68136661  0.63555212  0.05544185     0.36000
C2092       C  0.68098293  0.63670885  0.96496186     0.36000
C2093       C  0.75596223  0.61075182  0.17117439    -0.21500
C2094       C  0.72694366  0.61186552  0.17273720    -0.21500
C2095       C  0.75435504  0.61449967  0.84081100    -0.21500
C2096       C  0.72540349  0.61476174  0.84202206    -0.21500
C2097       C  0.82685742  0.64374608  0.03369031    -0.22600
C2098       C  0.82637594  0.64466368  0.97685223    -0.22600
C2099       C  0.65538577  0.64589325  0.04038374    -0.22600
C2100       C  0.65515608  0.64663501  0.98339974    -0.24800
C2101       C  0.79349679  0.62726162  0.10634841    -0.17900
C2102       C  0.68961573  0.62992020  0.11085432    -0.17900
C2103       C  0.68876792  0.63226497  0.90826255    -0.17900
C2104       C  0.79191510  0.63062053  0.90466525    -0.17900
H2105       H  0.76910522  0.60211776  0.20291432     0.15000
H2106       H  0.71371460  0.60426131  0.20583164     0.15000
H2107       H  0.76733313  0.60641341  0.80725091     0.15000
H2108       H  0.71197643  0.60671986  0.80960601     0.15000
H2109       H  0.84413526  0.65058246  0.05938950     0.13300
H2110       H  0.84320584  0.65213813  0.95064666     0.13300
H2111       H  0.63835671  0.65249887  0.06750522     0.13300
H2112       H  0.63793156  0.65388833  0.95852533     0.13300
H2113       H  0.74156976  0.64192264  0.05717617     0.26500
H2114       H  0.74088592  0.64428829  0.95953559     0.26500
C2115       C  0.88679070  0.89699139  0.76840135     0.30400
C2116       C  0.85315288  0.86381102  0.70602540     0.30400
C2117       C  0.85824288  0.88955885  0.79622679    -0.05800
C2118       C  0.87687444  0.90981298  0.71329031    -0.06600
C2119       C  0.89908255  0.86846366  0.75125975    -0.06500
C2120       C  0.84093997  0.87228399  0.76450205    -0.05800
C2121       C  0.85957454  0.89292008  0.68146995    -0.06600
C2122       C  0.88210963  0.85157934  0.71945418    -0.06500
C2123       C  0.81610208  0.86917020  0.79509657    -0.31900
N2124       N  0.81797973  0.88332828  0.84450210     0.14600
C2125       C  0.84340652  0.89654511  0.84458102    -0.31900
H2126       H  0.85050356  0.91052501  0.87730375     0.16600
C2127       C  0.85156664  0.90861099  0.63615198    -0.30800
N2128       N  0.86407832  0.93433234  0.63891485     0.13400
C2129       C  0.87896042  0.93536622  0.68673176    -0.30800
C2130       C  0.89613597  0.82631267  0.71141903    -0.31100
N2131       N  0.92127812  0.82750787  0.73810283     0.13900
H2132       H  0.88840569  0.80828884  0.68841594     0.16500
C2133       C  0.92303023  0.85331747  0.76281676    -0.31100
H2134       H  0.94025259  0.86040385  0.78849017     0.16500
H2135       H  0.89045205  0.95360012  0.70106079     0.16500
H2136       H  0.79747843  0.85796934  0.78214734     0.16600
H2137       H  0.83767266  0.90175137  0.60337975     0.16500
C2138       C  0.88529961  0.61413839  0.22143963     0.30400
C2139       C  0.85118180  0.64752649  0.28511690     0.30400
C2140       C  0.87706472  0.60270844  0.27854469    -0.05800
C2141       C  0.89686554  0.64385293  0.23478191    -0.06600
C2142       C  0.85618292  0.62127722  0.19512775    -0.06500
C2143       C  0.85957257  0.61944389  0.31049104    -0.05800
C2144       C  0.87952309  0.66070708  0.26764037    -0.06600
C2145       C  0.83837366  0.63754127  0.22850545    -0.06500
C2146       C  0.85345657  0.60491438  0.35835461    -0.31900
N2147       N  0.86740111  0.58005478  0.35696666     0.14600
C2148       C  0.88173750  0.57846893  0.30792452    -0.31900
H2149       H  0.89450859  0.56086540  0.29438202     0.16600
C2150       C  0.89325876  0.68613932  0.27541989    -0.30800
N2151       N  0.91846678  0.68540603  0.24810919     0.13400
C2152       C  0.92050784  0.65977796  0.22240992    -0.30800
C2153       C  0.81299746  0.63938303  0.19987240    -0.31100
N2154       N  0.81536679  0.62719213  0.14897604     0.13900
H2155       H  0.79336652  0.64803375  0.21429078     0.16500
C2156       C  0.84183096  0.61630803  0.14543353    -0.31100
H2157       H  0.85004763  0.60578158  0.10879383     0.16500
H2158       H  0.93812784  0.65308900  0.19686289     0.16500
H2159       H  0.83959894  0.61176977  0.39162395     0.16600
H2160       H  0.88559600  0.70374443  0.29996850     0.16500
C2161       C  0.63485958  0.64414429  0.72599138     0.30400
C2162       C  0.59997860  0.61239293  0.78721930     0.30400
C2163       C  0.64600580  0.63668081  0.78337133    -0.05800
C2164       C  0.60566675  0.65758502  0.73953622    -0.06600
C2165       C  0.62636295  0.61577908  0.69930197    -0.06500
C2166       C  0.62841049  0.62062238  0.81566679    -0.05800
C2167       C  0.58830976  0.64147349  0.77249320    -0.06600
C2168       C  0.60916584  0.59934849  0.73108831    -0.06500
C2169       C  0.64183330  0.61887418  0.86699233    -0.31900
N2170       N  0.66718182  0.63217875  0.86528434     0.14600
C2171       C  0.66947547  0.64366863  0.81433787    -0.31900
H2172       H  0.68702861  0.65624227  0.80056638     0.16600
C2173       C  0.56407124  0.65685301  0.78334553    -0.30800
N2174       N  0.56545274  0.68137786  0.75565914     0.13400
C2175       C  0.59030849  0.68158090  0.72757198    -0.30800
C2176       C  0.60420120  0.57474907  0.70096630    -0.31100
N2177       N  0.61759542  0.57602350  0.65094559     0.13900
H2178       H  0.59131076  0.55740729  0.71421047     0.16500
C2179       C  0.63088894  0.60130250  0.64958521    -0.31100
H2180       H  0.64327723  0.60857376  0.61496842     0.16500
H2181       H  0.59588224  0.69780036  0.69896513     0.16500
H2182       H  0.63384859  0.60925044  0.90395518     0.16600
H2183       H  0.54652188  0.65047924  0.80894487     0.16500
C2184       C  0.63805991  0.86409347  0.27405807     0.30400
C2185       C  0.60524060  0.89681662  0.21135425     0.30400
C2186       C  0.64998368  0.87085999  0.21579516    -0.05800
C2187       C  0.60894867  0.85137841  0.25916390    -0.06600
C2188       C  0.63060338  0.89305507  0.29995679    -0.06500
C2189       C  0.63338190  0.88797951  0.18506081    -0.05800
C2190       C  0.59176716  0.86838991  0.22814827    -0.06600
C2191       C  0.61336439  0.90968789  0.26854386    -0.06500
C2192       C  0.64701558  0.89248791  0.13506966    -0.31900
N2193       N  0.67151499  0.87803407  0.13399889     0.14600
C2194       C  0.67290178  0.86376210  0.18187650    -0.31900
H2195       H  0.68946876  0.84901412  0.19019049     0.16600
C2196       C  0.56625560  0.85425101  0.22254394    -0.30800
N2197       N  0.56787206  0.82869084  0.24636022     0.13400
C2198       C  0.59406515  0.82680132  0.26849994    -0.30800
C2199       C  0.60742576  0.93356283  0.30069998    -0.31100
N2200       N  0.62123477  0.93227134  0.35002969     0.13900
H2201       H  0.59384092  0.95057863  0.28904116     0.16500
C2202       C  0.63547076  0.90744028  0.34954004    -0.31100
H2203       H  0.64822663  0.90010962  0.38316602     0.16500
H2204       H  0.60166865  0.80888256  0.29056102     0.16500
H2205       H  0.63979832  0.90562092  0.10209085     0.16600
H2206       H  0.54748725  0.86200674  0.20320832     0.16500
O2207       O  0.52207245  0.50886804  0.12816738    -0.79800
O2208       O  0.96224536  0.53669430  0.92878973    -0.79800
O2209       O  0.52092281  0.55111850  0.96385815    -0.79800
O2210       O  0.95693964  0.54147156  0.04680299    -0.79700
O2211       O  0.51375451  0.52433642  0.89253522    -0.79800
O2212       O  0.96505177  0.51288975  0.11660255    -0.79800
O2213       O  0.92211570  0.52223058  0.96494560    -0.79800
O2214       O  0.52730190  0.54393620  0.07154685    -0.79800
C2215       C  0.53086253  0.53338252  0.11799495     1.09900
C2216       C  0.93537900  0.53829737  0.93317425     1.09800
C2217       C  0.52287311  0.54689508  0.91286856     1.10000
C2218       C  0.95507815  0.53565165  0.09749658     1.09800
O2219       O  0.96808958  0.95908240  0.04989031    -0.79800
O2220       O  0.51159967  0.96832727  0.93146599    -0.79800
O2221       O  0.55476664  0.99068394  0.05125202    -0.79800
O2222       O  0.95219176  0.97570011  0.94136457    -0.79700
O2223       O  0.97207524  0.99100112  0.86514761    -0.79800
O2224       O  0.52175104  0.95910239  0.05756351    -0.79800
O2225       O  0.93411825  0.98796884  0.04708676    -0.79700
O2226       O  0.54807859  0.99620159  0.94273585    -0.79800
Co2227     Co  0.99401322  0.48536996  0.08485038     1.51500
Co2228     Co  0.98681997  0.50115586  0.93433765     1.51700
Co2229     Co  0.53575940  0.52052375  0.00740680     1.51600
Co2230     Co  0.95664236  0.51019387  0.99415405     1.51500
O2231       O  0.99700993  0.50499499  0.01335087    -1.41700
C2232       C  0.94314222  0.96448776  0.06009280     1.09900
C2233       C  0.53734929  0.97350758  0.92456226     1.10000
C2234       C  0.54702780  0.96577895  0.06067165     1.09900
C2235       C  0.95605148  0.97382619  0.88852367     1.09900
O2236       O  0.72704966  0.72886101  0.38897453    -0.79800
O2237       O  0.72962621  0.78082972  0.61367863    -0.79800
O2238       O  0.71654697  0.68846590  0.53664618    -0.79800
O2239       O  0.70286141  0.78923872  0.44125957    -0.79700
O2240       O  0.71168857  0.72873600  0.58250502    -0.79800
O2241       O  0.73453955  0.78297861  0.37654951    -0.79800
O2242       O  0.70137242  0.78595549  0.54654212    -0.79800
O2243       O  0.69959881  0.72741061  0.46292714    -0.79800
C2244       C  0.70307225  0.72442575  0.41144543     1.09900
C2245       C  0.70718978  0.79096819  0.59550182     1.09800
C2246       C  0.70596669  0.70253669  0.57634584     1.10000
C2247       C  0.71029142  0.79115119  0.39189651     1.09800
O2248       O  0.78707425  0.78063338  0.43740680    -0.79800
O2249       O  0.76082843  0.73421120  0.63372966    -0.79800
O2250       O  0.75029695  0.69571143  0.45008550    -0.79800
O2251       O  0.75889251  0.81035873  0.55342148    -0.79700
O2252       O  0.78330384  0.77137663  0.56281262    -0.79800
O2253       O  0.78334428  0.72602544  0.44361327    -0.79800
O2254       O  0.75772497  0.81549496  0.44340918    -0.79700
O2255       O  0.76734090  0.71104135  0.55387651    -0.79800
Co2256     Co  0.75832075  0.75444212  0.41475380     1.51500
Co2257     Co  0.74871867  0.75017130  0.56818997     1.51700
Co2258     Co  0.73231164  0.72098783  0.50777703     1.51600
Co2259     Co  0.73003887  0.79876732  0.49647058     1.51500
O2260       O  0.74282590  0.75965695  0.48995680    -1.41700
C2261       C  0.78138583  0.80556560  0.42828262     1.09900
C2262       C  0.77274633  0.71499975  0.60555071     1.10000
C2263       C  0.77501754  0.70159543  0.43562252     1.09900
C2264       C  0.78065085  0.79737284  0.56972956     1.09900
C2265       C  0.58847414  0.95685799  0.11658580    -0.08800
C2266       C  0.56581425  0.94608149  0.08693333     0.07400
C2267       C  0.55837452  0.91782846  0.09309877    -0.02500
C2268       C  0.57136795  0.90243131  0.13347561    -0.07000
C2269       C  0.59032116  0.91493403  0.17085690     0.06500
C2270       C  0.60091078  0.94176334  0.15799352    -0.02000
Br2271     Br  0.63468732  0.95800381  0.18792160    -0.01700
H2272       H  0.59614128  0.97747397  0.10912975     0.10500
H2273       H  0.56758265  0.88028658  0.13260071     0.08500
Br2274     Br  0.53111855  0.89858518  0.04797027    -0.02100
C2275       C  0.66371791  0.81029213  0.37482760    -0.08800
C2276       C  0.69184344  0.80716402  0.35696356     0.07400
C2277       C  0.70291209  0.82549574  0.31777558    -0.02500
C2278       C  0.68593523  0.84646918  0.29828182    -0.07000
C2279       C  0.65696771  0.84687191  0.30946461     0.06500
C2280       C  0.64668573  0.83087899  0.35338869    -0.02000
Br2281     Br  0.61244842  0.83954514  0.39308534    -0.01700
H2282       H  0.65547168  0.79798133  0.40850179     0.10500
H2283       H  0.69579048  0.86284349  0.27494526     0.08500
Br2284     Br  0.74087844  0.82439496  0.29019879    -0.02100
C2285       C  0.69518895  0.66112214  0.62944716    -0.08800
C2286       C  0.68847271  0.68874188  0.61664534     0.07400
C2287       C  0.66791477  0.70317884  0.64778439    -0.02500
C2288       C  0.65291605  0.68908417  0.68756181    -0.07000
C2289       C  0.65604179  0.66025223  0.69331546     0.06500
C2290       C  0.67984747  0.64706324  0.66914028    -0.02000
Br2291     Br  0.69408781  0.61121642  0.69087493    -0.01700
H2292       H  0.71290925  0.65067632  0.60962896     0.10500
H2293       H  0.63944732  0.70111429  0.71477196     0.08500
Br2294     Br  0.65773577  0.74135070  0.63722330    -0.02100
C2295       C  0.58850247  0.57929396  0.86219165    -0.08800
C2296       C  0.57939086  0.59402055  0.81672566     0.07400
C2297       C  0.55157956  0.58932124  0.79765497    -0.02500
C2298       C  0.53264867  0.57472147  0.83060212    -0.07000
C2299       C  0.54143031  0.56414179  0.88093018     0.06500
C2300       C  0.56976241  0.56585391  0.89587269    -0.02000
Br2301     Br  0.58553422  0.54747602  0.95753671    -0.01700
H2302       H  0.61042322  0.57621555  0.86985915     0.10500
H2303       H  0.51137630  0.57105924  0.81649981     0.08500
Br2304     Br  0.53891668  0.59855105  0.72505807    -0.02100
C2305       C  0.94962846  0.57061555  0.17354767    -0.08800
C2306       C  0.93755121  0.55382735  0.13241419     0.07400
C2307       C  0.90835002  0.55466616  0.12475678    -0.02500
C2308       C  0.89224061  0.57374305  0.15483325    -0.07000
C2309       C  0.90448974  0.59360616  0.19061616     0.06500
C2310       C  0.93317445  0.58955023  0.20445635    -0.02000
Br2311     Br  0.95029972  0.60463683  0.27001895    -0.01700
H2312       H  0.97171836  0.56857506  0.18234244     0.10500
H2313       H  0.86979384  0.57150764  0.15230875     0.08500
Br2314     Br  0.88837373  0.52940799  0.07681597    -0.02100
C2315       C  0.82043167  0.67929176  0.41844743    -0.08800
C2316       C  0.79263773  0.68343607  0.40149942     0.07400
C2317       C  0.78618798  0.68042364  0.34526972    -0.02500
C2318       C  0.80752595  0.67520826  0.30755856    -0.07000
C2319       C  0.83353972  0.66545531  0.32451018     0.06500
C2320       C  0.84090978  0.67001920  0.38060043    -0.02000
Br2321     Br  0.87865817  0.66660784  0.40710129    -0.01700
H2322       H  0.82637186  0.68422412  0.46071333     0.10500
H2323       H  0.80390133  0.68021376  0.26530960     0.08500
Br2324     Br  0.74920694  0.68348043  0.31585920    -0.02100
C2325       C  0.82311084  0.82595607  0.57933028    -0.08800
C2326       C  0.80087593  0.81179640  0.60414344     0.07400
C2327       C  0.79937736  0.81008208  0.66220508    -0.02500
C2328       C  0.81758348  0.82585295  0.69408979    -0.07000
C2329       C  0.83661426  0.84415889  0.66959606     0.06500
C2330       C  0.84205004  0.84088968  0.61208211    -0.02000
Br2331     Br  0.87655572  0.85196643  0.57714874    -0.01700
H2332       H  0.82618288  0.82467028  0.53486902     0.10500
H2333       H  0.81734463  0.82287745  0.73816033     0.08500
Br2334     Br  0.77352107  0.78698788  0.70211846    -0.02100
C2335       C  0.92722050  0.93035903  0.77111110    -0.08800
C2336       C  0.90769594  0.91411910  0.80027899     0.07400
C2337       C  0.91141940  0.91139158  0.85741439    -0.02500
C2338       C  0.92687511  0.93159382  0.88549804    -0.07000
C2339       C  0.94242670  0.95155436  0.85666411     0.06500
C2340       C  0.94432273  0.94940978  0.79851703    -0.02000
Br2341     Br  0.96884091  0.97142464  0.75295273    -0.01700
H2342       H  0.92924970  0.92836882  0.72664422     0.10500
H2343       H  0.92710714  0.93146061  0.92990986     0.08500
Br2344     Br  0.90194413  0.87797945  0.89633278    -0.02100
C2345       C  0.92344137  0.58646331  0.90950639    -0.08800
C2346       C  0.92047566  0.55777466  0.89971820     0.07400
C2347       C  0.90362836  0.54769975  0.85676803    -0.02500
C2348       C  0.89177541  0.56642453  0.82113536    -0.07000
C2349       C  0.89707587  0.59531448  0.82606606     0.06500
C2350       C  0.91033085  0.60538211  0.87499097    -0.02000
Br2351     Br  0.90675884  0.64301559  0.90388912    -0.01700
H2352       H  0.93477524  0.59402865  0.94551264     0.10500
H2353       H  0.87705815  0.55806997  0.79146266     0.08500
Br2354     Br  0.89600254  0.50864029  0.84447274    -0.02100
C2355       C  0.83298597  0.69306154  0.68932858    -0.08800
C2356       C  0.82847541  0.66422419  0.69305137     0.07400
C2357       C  0.80333785  0.65274356  0.67096354    -0.02500
C2358       C  0.78592969  0.66954498  0.63988111    -0.07000
C2359       C  0.79288778  0.69750805  0.63167285     0.06500
C2360       C  0.81689883  0.70916193  0.65542940    -0.02000
Br2361     Br  0.83019097  0.74609398  0.64069778    -0.01700
H2362       H  0.84793196  0.70394563  0.71471000     0.10500
H2363       H  0.76640900  0.66110839  0.62384584     0.08500
Br2364     Br  0.78928481  0.61592731  0.68675376    -0.02100
C2365       C  0.55617750  0.92642676  0.90354714    -0.08800
C2366       C  0.55435339  0.95466993  0.89025991     0.07400
C2367       C  0.56975870  0.96480929  0.84521133    -0.02500
C2368       C  0.58579569  0.94650486  0.81325710    -0.07000
C2369       C  0.58497162  0.91752890  0.82144894     0.06500
C2370       C  0.57242608  0.90801594  0.87114529    -0.02000
Br2371     Br  0.58011998  0.87227247  0.90280237    -0.01700
H2372       H  0.54585697  0.91897635  0.94041312     0.10500
H2373       H  0.59979930  0.95555930  0.78338967     0.08500
Br2374     Br  0.56872259  0.00294492  0.82224543    -0.02100
C2375       C  0.68147450  0.85243870  0.68019357    -0.08800
C2376       C  0.65243209  0.84775376  0.67859944     0.07400
C2377       C  0.64210629  0.82935813  0.63745251    -0.02500
C2378       C  0.66039683  0.81002787  0.61343352    -0.07000
C2379       C  0.68922060  0.81060624  0.62573813     0.06500
C2380       C  0.69998966  0.83390315  0.65489519    -0.02000
Br2381     Br  0.73846476  0.84523121  0.65431690    -0.01700
H2382       H  0.68992283  0.87096883  0.70034748     0.10500
H2383       H  0.65224131  0.79535641  0.58284895     0.08500
Br2384     Br  0.60587163  0.83320774  0.60368335    -0.02100
C2385       C  0.79177682  0.84824630  0.37733599    -0.08800
C2386       C  0.79941399  0.82083755  0.39031566     0.07400
C2387       C  0.82040556  0.80696162  0.35817001    -0.02500
C2388       C  0.83369737  0.82121054  0.31633005    -0.07000
C2389       C  0.82909026  0.84966982  0.30917092     0.06500
C2390       C  0.80546981  0.86222805  0.33519268    -0.02000
Br2391     Br  0.78900696  0.89687374  0.31220560    -0.01700
H2392       H  0.77413945  0.85840352  0.39798211     0.10500
H2393       H  0.84695441  0.80949521  0.28812172     0.08500
Br2394     Br  0.83238396  0.76862313  0.36564993    -0.02100
C2395       C  0.92761971  0.95649062  0.15395550    -0.08800
C2396       C  0.92833025  0.94730142  0.09864494     0.07400
C2397       C  0.92161719  0.91946711  0.08550308    -0.02500
C2398       C  0.90747822  0.90383311  0.12421782    -0.07000
C2399       C  0.90315278  0.91462018  0.17791667     0.06500
C2400       C  0.91809346  0.93864932  0.19454688    -0.02000
Br2401     Br  0.93811747  0.94046054  0.26340969    -0.01700
H2402       H  0.93802457  0.97570919  0.16633810     0.10500
H2403       H  0.90015140  0.88305520  0.11276674     0.08500
Br2404     Br  0.93460320  0.90055245  0.02013761    -0.02100
C2405       C  0.66086188  0.69490328  0.40906136    -0.08800
C2406       C  0.68060580  0.71091871  0.38004139     0.07400
C2407       C  0.67994087  0.71081851  0.32206984    -0.02500
C2408       C  0.66361708  0.69092296  0.29477688    -0.07000
C2409       C  0.64853128  0.67057418  0.32429718     0.06500
C2410       C  0.64390976  0.67573691  0.38135973    -0.02000
Br2411     Br  0.61281142  0.66115083  0.42288251    -0.01700
H2412       H  0.65889457  0.69676825  0.45366779     0.10500
H2413       H  0.66233183  0.69196675  0.25030372     0.08500
Br2414     Br  0.69952315  0.73779110  0.27816747    -0.02100
C2415       C  0.53730214  0.56452757  0.19932623    -0.08800
C2416       C  0.54900203  0.54870808  0.15594257     0.07400
C2417       C  0.57766001  0.55192686  0.14305058    -0.02500
C2418       C  0.59332098  0.57199345  0.17001683    -0.07000
C2419       C  0.58086510  0.59130925  0.20626899     0.06500
C2420       C  0.55315751  0.58543500  0.22562459    -0.02000
Br2421     Br  0.53656039  0.60209611  0.29094361    -0.01700
H2422       H  0.51583160  0.56093424  0.21220693     0.10500
H2423       H  0.61567591  0.57152093  0.16343596     0.08500
Br2424     Br  0.59786340  0.53108066  0.08829832    -0.02100
loop_ 
_geom_bond_atom_site_label_1 
_geom_bond_atom_site_label_2 
_geom_bond_distance 
_geom_bond_site_symmetry_2 
_ccdc_geom_bond_type 
C1            C3   1.573       .  S
C1            C5   1.535       .  S
C1            C4   1.543       .  S
C1          C601   1.507       .  S
C2            C6   1.559       .  S
C2            C8   1.559       .  S
C2            C7   1.542       .  S
C2          C591   1.507       .  S
C3           C11   1.403       .  A
C3            C6   1.389       .  A
C4           C15   1.393       .  A
C4            C7   1.378       .  A
C5           C19   1.383       .  A
C5            C8   1.380       .  A
C6            C9   1.396       .  A
C7           C13   1.387       .  A
C8           C16   1.401       .  A
C9           N10   1.362       .  A
C9           H22   1.082       .  S
N10          C11   1.367       .  A
N10         C284   1.471       .  S
C11          H12   1.081       .  S
C13          N14   1.363       .  A
C13          H23   1.082       .  S
N14          C15   1.366       .  A
N14          C44   1.463       .  S
C15          H21   1.082       .  S
C16          N17   1.372       .  A
C16          H18   1.082       .  S
N17          C19   1.356       .  A
N17         C102   1.464       .  S
C19          H20   1.083       .  S
N24          C29   1.359       .  A
N24        C1240   1.360       .  A
N24          H56   1.042       .  S
N25          C32   1.359       .  A
N25          C33   1.359       .  A
N26          C31   1.362       .  A
N26        C1242   1.362       .  A
N26          H57   1.041       .  S
N27          C34   1.360       .  A
N27          C35   1.359       .  A
C28          C36   1.384       .  A
C28          C44   1.423       .  A
C28        N1236   1.360   1_455  A
C29          C45   1.424       .  A
C29          C37   1.383       .  A
C30          C38   1.387       .  A
C30          C47   1.432       .  A
C30        N1238   1.362   1_455  A
C31          C46   1.428       .  A
C31          C39   1.385       .  A
C32          C44   1.423       .  A
C32          C40   1.384       .  A
C33          C47   1.427       .  A
C33          C41   1.387       .  A
C34          C42   1.384       .  A
C34          C45   1.424       .  A
C35          C43   1.387       .  A
C35          C46   1.428       .  A
C36        C1249   1.379   1_455  A
C36          H48   1.080       .  S
C37        C1248   1.379       .  A
C37          H49   1.080       .  S
C38        C1251   1.381   1_455  A
C38          H50   1.082       .  S
C39        C1250   1.381       .  A
C39          H51   1.082       .  S
C40          C41   1.377       .  A
C40          H52   1.082       .  S
C41          H53   1.081       .  S
C42          C43   1.378       .  A
C42          H54   1.082       .  S
C43          H55   1.082       .  S
C45         N333   1.464       .  S
C46          N74   1.465       .  S
C47         N379   1.468       .  S
C58          C60   1.549       .  S
C58          C62   1.563       .  S
C58          C61   1.548       .  S
C58         C571   1.500       .  S
C59          C63   1.547       .  S
C59          C65   1.542       .  S
C59          C64   1.555       .  S
C59         C581   1.490       .  S
C60          C68   1.393       .  A
C60          C63   1.377       .  A
C61          C72   1.390       .  A
C61          C64   1.381       .  A
C62          C76   1.399       .  A
C62          C65   1.381       .  A
C63          C66   1.393       .  A
C64          C70   1.394       .  A
C65          C73   1.391       .  A
C66          N67   1.364       .  A
C66          H79   1.082       .  S
N67          C68   1.369       .  A
N67         C249   1.469       .  S
C68          H69   1.082       .  S
C70          N71   1.363       .  A
C70          H80   1.079       .  S
N71          C72   1.360       .  A
N71         C135   1.464       .  S
C72          H78   1.082       .  S
C73          N74   1.362       .  A
C73          H75   1.082       .  S
N74          C76   1.362       .  A
C76          H77   1.080       .  S
N81          C86   1.362       .  A
N81         C691   1.363   1_545  A
N81         H113   1.040       .  S
N82          C89   1.362       .  A
N82          C90   1.361       .  A
N83          C88   1.362       .  A
N83         C693   1.359   1_545  A
N83         H114   1.041       .  S
N84          C91   1.358       .  A
N84          C92   1.359       .  A
C85          C93   1.385       .  A
C85         C101   1.433       .  A
C85         N687   1.363       .  A
C86         C102   1.432       .  A
C86          C94   1.386       .  A
C87          C95   1.388       .  A
C87         C104   1.429       .  A
C87         N689   1.359       .  A
C88         C103   1.427       .  A
C88          C96   1.385       .  A
C89         C101   1.431       .  A
C89          C97   1.385       .  A
C90         C104   1.429       .  A
C90          C98   1.385       .  A
C91          C99   1.383       .  A
C91         C102   1.422       .  A
C92         C100   1.384       .  A
C92         C103   1.422       .  A
C93         C700   1.382       .  A
C93         H105   1.079       .  S
C94         C699   1.382   1_545  A
C94         H106   1.082       .  S
C95         C702   1.380       .  A
C95         H107   1.082       .  S
C96         C701   1.380   1_545  A
C96         H108   1.082       .  S
C97          C98   1.379       .  A
C97         H109   1.081       .  S
C98         H110   1.082       .  S
C99         C100   1.375       .  A
C99         H111   1.079       .  S
C100        H112   1.082       .  S
C101        N382   1.471       .  S
C103        N359   1.465       .  S
C104        N165   1.463       .  S
N115        C120   1.357       .  A
N115        C725   1.359   1_545  A
N115        H147   1.041       .  S
N116        C123   1.361       .  A
N116        C124   1.359       .  A
N117        C122   1.361       .  A
N117        C727   1.361   1_545  A
N117        H148   1.040       .  S
N118        C125   1.359       .  A
N118        C126   1.360       .  A
C119        C127   1.386       .  A
C119        C135   1.423       .  A
C119        N721   1.359       .  A
C120        C136   1.422       .  A
C120        C128   1.386       .  A
C121        C129   1.385       .  A
C121        C138   1.428       .  A
C121        N723   1.361       .  A
C122        C137   1.431       .  A
C122        C130   1.387       .  A
C123        C135   1.425       .  A
C123        C131   1.384       .  A
C124        C138   1.424       .  A
C124        C132   1.382       .  A
C125        C133   1.384       .  A
C125        C136   1.426       .  A
C126        C134   1.385       .  A
C126        C137   1.426       .  A
C127        C734   1.380       .  A
C127        H139   1.082       .  S
C128        C733   1.380   1_545  A
C128        H140   1.082       .  S
C129        C736   1.382       .  A
C129        H141   1.082       .  S
C130        C735   1.382   1_545  A
C130        H142   1.082       .  S
C131        C132   1.375       .  A
C131        H143   1.082       .  S
C132        H144   1.078       .  S
C133        C134   1.378       .  A
C133        H145   1.080       .  S
C134        H146   1.082       .  S
C136        N329   1.459       .  S
C137        N215   1.465       .  S
C138        N310   1.466       .  S
C149        C151   1.546       .  S
C149        C153   1.566       .  S
C149        C152   1.558       .  S
C149        C551   1.517       .  S
C150        C154   1.545       .  S
C150        C156   1.535       .  S
C150        C155   1.549       .  S
C150        C558   1.499       .  S
C151        C159   1.391       .  A
C151        C154   1.379       .  A
C152        C163   1.393       .  A
C152        C155   1.389       .  A
C153        C167   1.397       .  A
C153        C156   1.383       .  A
C154        C157   1.389       .  A
C155        C161   1.388       .  A
C156        C164   1.388       .  A
C157        N158   1.356       .  A
C157        H170   1.082       .  S
N158        C159   1.366       .  A
N158        C251   1.458       .  S
C159        H160   1.082       .  S
C161        N162   1.361       .  A
C161        H171   1.081       .  S
N162        C163   1.368       .  A
N162        C193   1.465       .  S
C163        H169   1.082       .  S
C164        N165   1.361       .  A
C164        H166   1.082       .  S
N165        C167   1.364       .  A
C167        H168   1.081       .  S
N172        C177   1.362       .  A
N172        C176   1.359       .  A
N172        H204   1.040       .  S
N173        C181   1.358       .  A
N173       C1392   1.356       .  A
N174        C179   1.360       .  A
N174        C178   1.362       .  A
N174        H205   1.041       .  S
N175        C183   1.357       .  A
N175       C1394   1.359       .  A
C176        C184   1.386       .  A
C176        C192   1.428       .  A
C177        C193   1.430       .  A
C177        C185   1.387       .  A
C178        C186   1.387       .  A
C178        C195   1.432       .  A
C179        C194   1.428       .  A
C179        C187   1.386       .  A
C180        C192   1.419       .  A
C180        C188   1.382       .  A
C180       N1385   1.356   1_455  A
C181        C195   1.417       .  A
C181        C189   1.383       .  A
C182        C190   1.385       .  A
C182        C193   1.423       .  A
C182       N1387   1.359   1_455  A
C183        C191   1.386       .  A
C183        C194   1.424       .  A
C184        C185   1.383       .  A
C184        H196   1.082       .  S
C185        H197   1.082       .  S
C186        C187   1.382       .  A
C186        H198   1.082       .  S
C187        H199   1.082       .  S
C188       C1401   1.374   1_455  A
C188        H200   1.077       .  S
C189       C1400   1.374       .  A
C189        H201   1.082       .  S
C190       C1403   1.375   1_455  A
C190        H202   1.082       .  S
C191       C1402   1.375       .  A
C191        H203   1.082       .  S
C192        N356   1.459       .  S
C194        N313   1.461       .  S
C195        N219   1.464       .  S
C206        C208   1.545       .  S
C206        C210   1.538       .  S
C206        C209   1.564       .  S
C206        C538   1.501       .  S
C207        C211   1.564       .  S
C207        C213   1.536       .  S
C207        C212   1.553       .  S
C207        C531   1.504       .  S
C208        C216   1.391       .  A
C208        C211   1.384       .  A
C209        C220   1.396       .  A
C209        C212   1.390       .  A
C210        C224   1.391       .  A
C210        C213   1.370       .  A
C211        C214   1.396       .  A
C212        C218   1.394       .  A
C213        C221   1.388       .  A
C214        N215   1.364       .  A
C214        H227   1.082       .  S
N215        C216   1.363       .  A
C216        H217   1.082       .  S
C218        N219   1.365       .  A
C218        H228   1.082       .  S
N219        C220   1.357       .  A
C220        H226   1.080       .  S
C221        N222   1.363       .  A
C221        H223   1.082       .  S
N222        C224   1.365       .  A
N222        C286   1.462       .  S
C224        H225   1.082       .  S
N229        C234   1.359       .  A
N229        C233   1.359       .  A
N229        H261   1.039       .  S
N230        C237   1.365   1_556  A
N230        C238   1.363       .  A
N231        C236   1.363       .  A
N231        C235   1.361       .  A
N231        H262   1.037       .  S
N232        C239   1.355   1_556  A
N232        C240   1.354       .  A
C233        C241   1.386       .  A
C233        C249   1.425       .  A
C234        C250   1.423       .  A
C234        C242   1.386       .  A
C235        C243   1.387       .  A
C235        C252   1.431       .  A
C236        C251   1.430       .  A
C236        C244   1.386       .  A
C237        C249   1.433       .  A
C237        C245   1.384       .  A
C238        C252   1.435       .  A
C238        C246   1.384       .  A
C239        C247   1.385       .  A
C239        C250   1.415       .  A
C240        C248   1.385       .  A
C240        C251   1.415       .  A
C241        C242   1.379       .  A
C241        H253   1.081       .  S
C242        H254   1.082       .  S
C243        C244   1.381       .  A
C243        H255   1.082       .  S
C244        H256   1.082       .  S
C245        C246   1.380   1_554  A
C245        H257   1.082       .  S
C246        H258   1.078       .  S
C247        C248   1.373   1_554  A
C247        H259   1.082       .  S
C248        H260   1.081       .  S
C250        N375   1.453       .  S
C252        N306   1.471       .  S
N263        C268   1.365       .  A
N263        C267   1.365       .  A
N263        H295   1.041       .  S
N264        C271   1.359       .  A
N264        C272   1.359   1_554  A
N265        C270   1.360       .  A
N265        C269   1.361       .  A
N265        H296   1.041       .  S
N266        C273   1.361       .  A
N266        C274   1.361   1_554  A
C267        C275   1.387       .  A
C267        C283   1.437       .  A
C268        C284   1.435       .  A
C268        C276   1.386       .  A
C269        C277   1.384       .  A
C269        C286   1.423       .  A
C270        C285   1.428       .  A
C270        C278   1.387       .  A
C271        C283   1.425       .  A
C271        C279   1.386       .  A
C272        C286   1.422       .  A
C272        C280   1.384       .  A
C273        C281   1.386       .  A
C273        C284   1.429       .  A
C274        C282   1.385       .  A
C274        C285   1.429       .  A
C275        C276   1.382       .  A
C275        H287   1.082       .  S
C276        H288   1.082       .  S
C277        C278   1.378       .  A
C277        H289   1.081       .  S
C278        H290   1.080       .  S
C279        C280   1.376   1_554  A
C279        H291   1.081       .  S
C280        H292   1.082       .  S
C281        C282   1.379   1_554  A
C281        H293   1.082       .  S
C282        H294   1.082       .  S
C283        N336   1.471       .  S
C285        N352   1.467       .  S
C297        C299   1.555       .  S
C297        C301   1.533       .  S
C297        C300   1.554       .  S
C297        C518   1.497       .  S
C298        C302   1.570       .  S
C298        C304   1.537       .  S
C298        C303   1.552       .  S
C298        C511   1.502       .  S
C299        C307   1.396       .  A
C299        C302   1.390       .  A
C300        C311   1.393       .  A
C300        C303   1.381       .  A
C301        C315   1.384       .  A
C301        C304   1.371       .  A
C302        C305   1.398       .  A
C303        C309   1.395       .  A
C304        C312   1.390       .  A
C305        N306   1.365       .  A
C305        H318   1.081       .  S
N306        C307   1.364       .  A
C307        H308   1.082       .  S
C309        N310   1.366       .  A
C309        H319   1.082       .  S
N310        C311   1.361       .  A
C311        H317   1.081       .  S
C312        N313   1.365       .  A
C312        H314   1.082       .  S
N313        C315   1.363       .  A
C315        H316   1.082       .  S
C320        C322   1.542       .  S
C320        C324   1.570       .  S
C320        C323   1.552       .  S
C320        C491   1.521       .  S
C321        C325   1.540       .  S
C321        C327   1.569       .  S
C321        C326   1.547       .  S
C321        C501   1.518       .  S
C322        C330   1.389       .  A
C322        C325   1.377       .  A
C323        C334   1.391       .  A
C323        C326   1.388       .  A
C324        C338   1.403       .  A
C324        C327   1.393       .  A
C325        C328   1.389       .  A
C326        C332   1.390       .  A
C327        C335   1.401       .  A
C328        N329   1.361       .  A
C328        H341   1.082       .  S
N329        C330   1.364       .  A
C330        H331   1.082       .  S
C332        N333   1.365       .  A
C332        H342   1.082       .  S
N333        C334   1.366       .  A
C334        H340   1.082       .  S
C335        N336   1.355       .  A
C335        H337   1.075       .  S
N336        C338   1.364       .  A
C338        H339   1.081       .  S
C343        C345   1.537       .  S
C343        C347   1.545       .  S
C343        C346   1.561       .  S
C343        C471   1.497       .  S
C344        C348   1.569       .  S
C344        C350   1.543       .  S
C344        C349   1.546       .  S
C344        C478   1.500       .  S
C345        C353   1.387       .  A
C345        C348   1.382       .  A
C346        C357   1.397       .  A
C346        C349   1.386       .  A
C347        C361   1.391       .  A
C347        C350   1.374       .  A
C348        C351   1.404       .  A
C349        C355   1.389       .  A
C350        C358   1.392       .  A
C351        N352   1.364       .  A
C351        H364   1.079       .  S
N352        C353   1.361       .  A
C353        H354   1.082       .  S
C355        N356   1.362       .  A
C355        H365   1.082       .  S
N356        C357   1.359       .  A
C357        H363   1.080       .  S
C358        N359   1.365       .  A
C358        H360   1.082       .  S
N359        C361   1.364       .  A
C361        H362   1.082       .  S
C366        C368   1.554       .  S
C366        C370   1.549       .  S
C366        C369   1.555       .  S
C366        C461   1.503       .  S
C367        C371   1.534       .  S
C367        C373   1.554       .  S
C367        C372   1.561       .  S
C367        C451   1.502       .  S
C368        C376   1.397       .  A
C368        C371   1.371       .  A
C369        C380   1.392       .  A
C369        C372   1.388       .  A
C370        C384   1.392       .  A
C370        C373   1.384       .  A
C371        C374   1.387       .  A
C372        C378   1.395       .  A
C373        C381   1.396       .  A
C374        N375   1.355       .  A
C374        H387   1.082       .  S
N375        C376   1.357       .  A
C376        H377   1.081       .  S
C378        N379   1.363       .  A
C378        H388   1.081       .  S
N379        C380   1.364       .  A
C380        H386   1.081       .  S
C381        N382   1.369       .  A
C381        H383   1.082       .  S
N382        C384   1.367       .  A
C384        H385   1.082       .  S
O389        C397   1.271       .  A
O389      Co1621   2.029   1_445  S
O390        C398   1.284       .  A
O390       Co410   2.070       .  S
O391        C399   1.248       .  A
O391       Co411   1.954   1_556  S
O392        C400   1.264       .  A
O392       Co412   1.945   1_554  S
O393        C399   1.255       .  A
O393      Co1622   1.977   1_455  S
O394        C400   1.283       .  A
O394       Co409   2.041   1_545  S
O395        C398   1.261       .  A
O395       Co412   1.888       .  S
O396        C397   1.252       .  A
O396       Co411   1.935       .  S
C397        C598   1.453       .  S
C398        C528   1.436       .  S
C399        C481   1.438       .  S
C400        C488   1.458       .  S
O401        C414   1.237       .  A
O401      Co1015   1.947       .  S
O402        C415   1.260       .  A
O402      Co2228   1.963   1_455  S
O403        C416   1.270       .  A
O403      Co1017   2.013       .  S
O404        C417   1.290       .  A
O404      Co1018   2.078       .  S
O405        C417   1.258       .  A
O405      Co1016   1.875       .  S
O406        C416   1.247       .  A
O406      Co2227   1.926   1_455  S
O407        C414   1.249       .  A
O407      Co1018   1.985   1_554  S
O408        C415   1.271       .  A
O408      Co1017   2.014   1_556  S
Co409      O1601   2.029   1_565  S
Co409      O1007   1.947       .  S
Co409      O2224   1.926       .  S
Co409       O413   1.986   1_565  S
Co410      O1605   1.977       .  S
Co410      O2220   1.963   1_545  S
Co410      O1011   1.875   1_545  S
Co410       O413   1.980   1_556  S
Co411      O1009   2.013   1_545  S
Co411      O1014   2.014   1_544  S
Co411      O1625   1.992   1_455  S
Co412      O1010   2.078   1_545  S
Co412      O1013   1.985   1_546  S
Co412       O413   1.997   1_556  S
O413      Co1623   1.992       .  S
C414        C578   1.434       .  S
C415        C548   1.454       .  S
C416        C448   1.457       .  S
C417        C521   1.457       .  S
O418        C426   1.279       .  A
O418       Co438   2.020       .  S
O419        C427   1.259       .  A
O419       Co439   2.027       .  S
O420        C428   1.263       .  A
O420       Co440   1.870       .  S
O421        C429   1.247       .  A
O421       Co441   1.915       .  S
O422        C428   1.287       .  A
O422       Co439   2.068       .  S
O423        C429   1.269       .  A
O423       Co438   2.015       .  S
O424        C427   1.237       .  A
O424       Co441   1.924       .  S
O425        C426   1.260       .  A
O425       Co440   1.933       .  S
C426        C588   1.459       .  S
C427        C561   1.453       .  S
C428        C468   1.444       .  S
C429        C458   1.452       .  S
O430        C443   1.246       .  A
O430       Co438   1.929       .  S
O431        C444   1.265       .  A
O431       Co439   1.867       .  S
O432        C445   1.258       .  A
O432       Co440   2.014       .  S
O433        C446   1.277       .  A
O433       Co441   2.022       .  S
O434        C446   1.257       .  A
O434       Co439   1.937       .  S
O435        C445   1.245       .  A
O435       Co438   1.950       .  S
O436        C443   1.271       .  A
O436       Co441   2.007       .  S
O437        C444   1.288       .  A
O437       Co440   2.073       .  S
Co438       O442   1.968       .  S
Co439       O442   1.975       .  S
Co440       O442   1.969       .  S
Co441       O442   1.969       .  S
C443        C568   1.457       .  S
C444        C541   1.431       .  S
C445        C498   1.449       .  S
C446        C508   1.444       .  S
C447        C448   1.393       .  A
C447        C452   1.382       .  A
C447        H454   1.068       .  S
C448        C449   1.406       .  A
C449        C450   1.384       .  A
C449       Br456   1.924       .  S
C450        C451   1.407       .  A
C450        H455   1.073       .  S
C451        C452   1.416       .  A
C452       Br453   1.925       .  S
C457        C458   1.410       .  A
C457        C462   1.386       .  A
C457        H464   1.084       .  S
C458        C459   1.402       .  A
C459        C460   1.380       .  A
C459       Br466   1.921       .  S
C460        C461   1.403       .  A
C460        H465   1.078       .  S
C461        C462   1.404       .  A
C462       Br463   1.925       .  S
C467        C468   1.399       .  A
C467        C472   1.385       .  A
C467        H474   1.084       .  S
C468        C469   1.403       .  A
C469        C470   1.378       .  A
C469       Br476   1.910       .  S
C470        C471   1.396       .  A
C470        H475   1.074       .  S
C471        C472   1.414       .  A
C472       Br473   1.927       .  S
C477        C478   1.389       .  A
C477        C482   1.370       .  A
C477        H484   1.072       .  S
C478        C479   1.421       .  A
C479        C480   1.393       .  A
C479       Br486   1.920       .  S
C480        C481   1.394       .  A
C480        H485   1.084       .  S
C481        C482   1.401       .  A
C482       Br483   1.904       .  S
C487        C488   1.393       .  A
C487        C492   1.399       .  A
C487        H494   1.079       .  S
C488        C489   1.404       .  A
C489        C490   1.384       .  A
C489       Br496   1.915       .  S
C490        C491   1.402       .  A
C490        H495   1.076       .  S
C491        C492   1.422       .  A
C492       Br493   1.917       .  S
C497        C498   1.403       .  A
C497        C502   1.398       .  A
C497        H504   1.084       .  S
C498        C499   1.401       .  A
C499        C500   1.379       .  A
C499       Br506   1.910       .  S
C500        C501   1.391       .  A
C500        H505   1.069       .  S
C501        C502   1.416       .  A
C502       Br503   1.920       .  S
C507        C508   1.393       .  A
C507        C512   1.392       .  A
C507        H514   1.084       .  S
C508        C509   1.409       .  A
C509        C510   1.379       .  A
C509       Br516   1.919       .  S
C510        C511   1.395       .  A
C510        H515   1.077       .  S
C511        C512   1.418       .  A
C512       Br513   1.919       .  S
C517        C518   1.404       .  A
C517        C522   1.384       .  A
C517        H524   1.081       .  S
C518        C519   1.402       .  A
C519        C520   1.384       .  A
C519       Br526   1.920       .  S
C520        C521   1.400       .  A
C520        H525   1.074       .  S
C521        C522   1.410       .  A
C522       Br523   1.924       .  S
C527        C528   1.394       .  A
C527        C532   1.393       .  A
C527        H534   1.084       .  S
C528        C529   1.395       .  A
C529        C530   1.378       .  A
C529       Br536   1.920       .  S
C530        C531   1.406       .  A
C530        H535   1.078       .  S
C531        C532   1.421       .  A
C532       Br533   1.924       .  S
C537        C538   1.399       .  A
C537        C542   1.373       .  A
C537        H544   1.071       .  S
C538        C539   1.420       .  A
C539        C540   1.389       .  A
C539       Br546   1.926       .  S
C540        C541   1.394       .  A
C540        H545   1.084       .  S
C541        C542   1.394       .  A
C542       Br543   1.913       .  S
C547        C548   1.396       .  A
C547        C552   1.397       .  A
C547        H554   1.080       .  S
C548        C549   1.401       .  A
C549        C550   1.382       .  A
C549       Br556   1.916       .  S
C550        C551   1.403       .  A
C550        H555   1.075       .  S
C551        C552   1.419       .  A
C552       Br553   1.922       .  S
C557        C558   1.401       .  A
C557        C562   1.381       .  A
C557        H564   1.082       .  S
C558        C559   1.407       .  A
C559        C560   1.386       .  A
C559       Br566   1.924       .  S
C560        C561   1.406       .  A
C560        H565   1.083       .  S
C561        C562   1.405       .  A
C562       Br563   1.909       .  S
C567        C568   1.402       .  A
C567        C572   1.387       .  A
C567        H574   1.083       .  S
C568        C569   1.418       .  A
C569        C570   1.379       .  A
C569       Br576   1.932       .  S
C570        C571   1.392       .  A
C570        H575   1.075       .  S
C571        C572   1.412       .  A
C572       Br573   1.926       .  S
C577        C578   1.400       .  A
C577        C582   1.385       .  A
C577        H584   1.082       .  S
C578        C579   1.399       .  A
C579        C580   1.379       .  A
C579       Br586   1.904       .  S
C580        C581   1.401       .  A
C580        H585   1.084       .  S
C581        C582   1.404       .  A
C582       Br583   1.926       .  S
C587        C588   1.403       .  A
C587        C592   1.387       .  A
C587        H594   1.084       .  S
C588        C589   1.402       .  A
C589        C590   1.388       .  A
C589       Br596   1.921       .  S
C590        C591   1.410       .  A
C590        H595   1.079       .  S
C591        C592   1.412       .  A
C592       Br593   1.919       .  S
C597        C598   1.394       .  A
C597        C602   1.398       .  A
C597        H604   1.080       .  S
C598        C599   1.405       .  A
C599        C600   1.372       .  A
C599       Br606   1.897       .  S
C600        C601   1.390       .  A
C600        H605   1.075       .  S
C601        C602   1.425       .  A
C602       Br603   1.919       .  S
C607        C609   1.573       .  S
C607        C611   1.535       .  S
C607        C610   1.543       .  S
C607       C1207   1.507       .  S
C608        C612   1.559       .  S
C608        C614   1.559       .  S
C608        C613   1.542       .  S
C608       C1197   1.507       .  S
C609        C617   1.403       .  A
C609        C612   1.389       .  A
C610        C621   1.393       .  A
C610        C613   1.378       .  A
C611        C625   1.383       .  A
C611        C614   1.380       .  A
C612        C615   1.396       .  A
C613        C619   1.387       .  A
C614        C622   1.401       .  A
C615        N616   1.362       .  A
C615        H628   1.082       .  S
N616        C617   1.367       .  A
N616        C890   1.471       .  S
C617        H618   1.081       .  S
C619        N620   1.363       .  A
C619        H629   1.082       .  S
N620        C621   1.366       .  A
N620        C650   1.463       .  S
C621        H627   1.082       .  S
C622        N623   1.372       .  A
C622        H624   1.082       .  S
N623        C625   1.356       .  A
N623        C708   1.464       .  S
C625        H626   1.083       .  S
N630        C635   1.359       .  A
N630       C1846   1.360       .  A
N630        H662   1.042       .  S
N631        C638   1.359       .  A
N631        C639   1.359       .  A
N632        C637   1.362       .  A
N632       C1848   1.362       .  A
N632        H663   1.041       .  S
N633        C640   1.360       .  A
N633        C641   1.359       .  A
C634        C642   1.384       .  A
C634        C650   1.423       .  A
C634       N1842   1.360   1_455  A
C635        C651   1.424       .  A
C635        C643   1.383       .  A
C636        C644   1.387       .  A
C636        C653   1.432       .  A
C636       N1844   1.362   1_455  A
C637        C652   1.428       .  A
C637        C645   1.385       .  A
C638        C650   1.423       .  A
C638        C646   1.384       .  A
C639        C653   1.427       .  A
C639        C647   1.387       .  A
C640        C648   1.384       .  A
C640        C651   1.424       .  A
C641        C649   1.387       .  A
C641        C652   1.428       .  A
C642       C1855   1.379   1_455  A
C642        H654   1.080       .  S
C643       C1854   1.379       .  A
C643        H655   1.080       .  S
C644       C1857   1.381   1_455  A
C644        H656   1.082       .  S
C645       C1856   1.381       .  A
C645        H657   1.082       .  S
C646        C647   1.377       .  A
C646        H658   1.082       .  S
C647        H659   1.081       .  S
C648        C649   1.378       .  A
C648        H660   1.082       .  S
C649        H661   1.082       .  S
C651        N939   1.464       .  S
C652        N680   1.465       .  S
C653        N985   1.468       .  S
C664        C666   1.549       .  S
C664        C668   1.563       .  S
C664        C667   1.548       .  S
C664       C1177   1.500       .  S
C665        C669   1.547       .  S
C665        C671   1.542       .  S
C665        C670   1.555       .  S
C665       C1187   1.490       .  S
C666        C674   1.393       .  A
C666        C669   1.377       .  A
C667        C678   1.390       .  A
C667        C670   1.381       .  A
C668        C682   1.399       .  A
C668        C671   1.381       .  A
C669        C672   1.393       .  A
C670        C676   1.394       .  A
C671        C679   1.391       .  A
C672        N673   1.364       .  A
C672        H685   1.082       .  S
N673        C674   1.369       .  A
N673        C855   1.469       .  S
C674        H675   1.082       .  S
C676        N677   1.363       .  A
C676        H686   1.079       .  S
N677        C678   1.360       .  A
N677        C741   1.464       .  S
C678        H684   1.082       .  S
C679        N680   1.362       .  A
C679        H681   1.082       .  S
N680        C682   1.362       .  A
C682        H683   1.080       .  S
N687        C692   1.362       .  A
N687        H719   1.040       .  S
N688        C695   1.362       .  A
N688        C696   1.361       .  A
N689        C694   1.362       .  A
N689        H720   1.041       .  S
N690        C697   1.358       .  A
N690        C698   1.359       .  A
C691        C699   1.385       .  A
C691        C707   1.433       .  A
C692        C708   1.432       .  A
C692        C700   1.386       .  A
C693        C701   1.388       .  A
C693        C710   1.429       .  A
C694        C709   1.427       .  A
C694        C702   1.385       .  A
C695        C707   1.431       .  A
C695        C703   1.385       .  A
C696        C710   1.429       .  A
C696        C704   1.385       .  A
C697        C705   1.383       .  A
C697        C708   1.422       .  A
C698        C706   1.384       .  A
C698        C709   1.422       .  A
C699        H711   1.079       .  S
C700        H712   1.082       .  S
C701        H713   1.082       .  S
C702        H714   1.082       .  S
C703        C704   1.379       .  A
C703        H715   1.081       .  S
C704        H716   1.082       .  S
C705        C706   1.375       .  A
C705        H717   1.079       .  S
C706        H718   1.082       .  S
C707        N988   1.471       .  S
C709        N965   1.465       .  S
C710        N771   1.463       .  S
N721        C726   1.357       .  A
N721        H753   1.041       .  S
N722        C729   1.361       .  A
N722        C730   1.359       .  A
N723        C728   1.361       .  A
N723        H754   1.041       .  S
N724        C731   1.359       .  A
N724        C732   1.360       .  A
C725        C733   1.386       .  A
C725        C741   1.423       .  A
C726        C742   1.422       .  A
C726        C734   1.386       .  A
C727        C735   1.385       .  A
C727        C744   1.428       .  A
C728        C743   1.431       .  A
C728        C736   1.387       .  A
C729        C741   1.425       .  A
C729        C737   1.384       .  A
C730        C744   1.424       .  A
C730        C738   1.382       .  A
C731        C739   1.384       .  A
C731        C742   1.426       .  A
C732        C740   1.385       .  A
C732        C743   1.426       .  A
C733        H745   1.082       .  S
C734        H746   1.082       .  S
C735        H747   1.082       .  S
C736        H748   1.082       .  S
C737        C738   1.375       .  A
C737        H749   1.082       .  S
C738        H750   1.078       .  S
C739        C740   1.378       .  A
C739        H751   1.080       .  S
C740        H752   1.082       .  S
C742        N935   1.459       .  S
C743        N821   1.465       .  S
C744        N916   1.466       .  S
C755        C757   1.546       .  S
C755        C759   1.566       .  S
C755        C758   1.558       .  S
C755       C1157   1.517       .  S
C756        C760   1.545       .  S
C756        C762   1.535       .  S
C756        C761   1.549       .  S
C756       C1164   1.499       .  S
C757        C765   1.391       .  A
C757        C760   1.379       .  A
C758        C769   1.393       .  A
C758        C761   1.389       .  A
C759        C773   1.397       .  A
C759        C762   1.383       .  A
C760        C763   1.389       .  A
C761        C767   1.388       .  A
C762        C770   1.388       .  A
C763        N764   1.356       .  A
C763        H776   1.082       .  S
N764        C765   1.366       .  A
N764        C857   1.458       .  S
C765        H766   1.082       .  S
C767        N768   1.361       .  A
C767        H777   1.081       .  S
N768        C769   1.368       .  A
N768        C799   1.465       .  S
C769        H775   1.082       .  S
C770        N771   1.361       .  A
C770        H772   1.082       .  S
N771        C773   1.364       .  A
C773        H774   1.081       .  S
N778        C783   1.362       .  A
N778        C782   1.359       .  A
N778        H810   1.040       .  S
N779       C1998   1.356       .  A
N779        C787   1.358       .  A
N780        C785   1.360       .  A
N780        C784   1.362       .  A
N780        H811   1.041       .  S
N781       C2000   1.359       .  A
N781        C789   1.357       .  A
C782        C790   1.386       .  A
C782        C798   1.428       .  A
C783        C799   1.430       .  A
C783        C791   1.387       .  A
C784        C792   1.387       .  A
C784        C801   1.432       .  A
C785        C800   1.428       .  A
C785        C793   1.386       .  A
C786        C798   1.419       .  A
C786        C794   1.382       .  A
C786       N1991   1.356   1_455  A
C787        C801   1.417       .  A
C787        C795   1.383       .  A
C788        C796   1.385       .  A
C788        C799   1.423       .  A
C788       N1993   1.359   1_455  A
C789        C797   1.386       .  A
C789        C800   1.424       .  A
C790        C791   1.383       .  A
C790        H802   1.082       .  S
C791        H803   1.082       .  S
C792        C793   1.382       .  A
C792        H804   1.082       .  S
C793        H805   1.082       .  S
C794       C2007   1.374   1_455  A
C794        H806   1.077       .  S
C795       C2006   1.374       .  A
C795        H807   1.082       .  S
C796       C2009   1.375   1_455  A
C796        H808   1.082       .  S
C797       C2008   1.375       .  A
C797        H809   1.082       .  S
C798        N962   1.459       .  S
C800        N919   1.461       .  S
C801        N825   1.464       .  S
C812        C814   1.545       .  S
C812        C816   1.538       .  S
C812        C815   1.564       .  S
C812       C1144   1.501       .  S
C813        C817   1.564       .  S
C813        C819   1.536       .  S
C813        C818   1.553       .  S
C813       C1137   1.504       .  S
C814        C822   1.391       .  A
C814        C817   1.384       .  A
C815        C826   1.396       .  A
C815        C818   1.390       .  A
C816        C830   1.391       .  A
C816        C819   1.370       .  A
C817        C820   1.396       .  A
C818        C824   1.394       .  A
C819        C827   1.388       .  A
C820        N821   1.364       .  A
C820        H833   1.082       .  S
N821        C822   1.363       .  A
C822        H823   1.082       .  S
C824        N825   1.365       .  A
C824        H834   1.082       .  S
N825        C826   1.357       .  A
C826        H832   1.080       .  S
C827        N828   1.363       .  A
C827        H829   1.082       .  S
N828        C830   1.365       .  A
N828        C892   1.462       .  S
C830        H831   1.082       .  S
N835        C840   1.359       .  A
N835        C839   1.359       .  A
N835        H867   1.039       .  S
N836        C843   1.365   1_556  A
N836        C844   1.363       .  A
N837        C842   1.363       .  A
N837        C841   1.361       .  A
N837        H868   1.037       .  S
N838        C845   1.355   1_556  A
N838        C846   1.354       .  A
C839        C847   1.386       .  A
C839        C855   1.425       .  A
C840        C856   1.423       .  A
C840        C848   1.386       .  A
C841        C849   1.387       .  A
C841        C858   1.431       .  A
C842        C857   1.430       .  A
C842        C850   1.386       .  A
C843        C855   1.433       .  A
C843        C851   1.384       .  A
C844        C858   1.435       .  A
C844        C852   1.384       .  A
C845        C853   1.385       .  A
C845        C856   1.415       .  A
C846        C854   1.385       .  A
C846        C857   1.415       .  A
C847        C848   1.379       .  A
C847        H859   1.081       .  S
C848        H860   1.082       .  S
C849        C850   1.381       .  A
C849        H861   1.082       .  S
C850        H862   1.082       .  S
C851        C852   1.380   1_554  A
C851        H863   1.082       .  S
C852        H864   1.078       .  S
C853        C854   1.373   1_554  A
C853        H865   1.082       .  S
C854        H866   1.081       .  S
C856        N981   1.453       .  S
C858        N912   1.471       .  S
N869        C874   1.365       .  A
N869        C873   1.365       .  A
N869        H901   1.041       .  S
N870        C877   1.359       .  A
N870        C878   1.359   1_554  A
N871        C876   1.360       .  A
N871        C875   1.361       .  A
N871        H902   1.041       .  S
N872        C879   1.361       .  A
N872        C880   1.361   1_554  A
C873        C881   1.387       .  A
C873        C889   1.437       .  A
C874        C890   1.435       .  A
C874        C882   1.386       .  A
C875        C883   1.384       .  A
C875        C892   1.423       .  A
C876        C891   1.428       .  A
C876        C884   1.387       .  A
C877        C889   1.425       .  A
C877        C885   1.386       .  A
C878        C892   1.422       .  A
C878        C886   1.384       .  A
C879        C887   1.386       .  A
C879        C890   1.429       .  A
C880        C888   1.385       .  A
C880        C891   1.429       .  A
C881        C882   1.382       .  A
C881        H893   1.082       .  S
C882        H894   1.082       .  S
C883        C884   1.378       .  A
C883        H895   1.081       .  S
C884        H896   1.080       .  S
C885        C886   1.376   1_554  A
C885        H897   1.081       .  S
C886        H898   1.082       .  S
C887        C888   1.379   1_554  A
C887        H899   1.082       .  S
C888        H900   1.082       .  S
C889        N942   1.471       .  S
C891        N958   1.467       .  S
C903        C905   1.555       .  S
C903        C907   1.533       .  S
C903        C906   1.554       .  S
C903       C1124   1.497       .  S
C904        C908   1.570       .  S
C904        C910   1.537       .  S
C904        C909   1.552       .  S
C904       C1117   1.502       .  S
C905        C913   1.396       .  A
C905        C908   1.390       .  A
C906        C917   1.393       .  A
C906        C909   1.381       .  A
C907        C921   1.384       .  A
C907        C910   1.371       .  A
C908        C911   1.398       .  A
C909        C915   1.395       .  A
C910        C918   1.390       .  A
C911        N912   1.365       .  A
C911        H924   1.081       .  S
N912        C913   1.364       .  A
C913        H914   1.082       .  S
C915        N916   1.366       .  A
C915        H925   1.082       .  S
N916        C917   1.361       .  A
C917        H923   1.081       .  S
C918        N919   1.365       .  A
C918        H920   1.082       .  S
N919        C921   1.363       .  A
C921        H922   1.082       .  S
C926        C928   1.542       .  S
C926        C930   1.570       .  S
C926        C929   1.552       .  S
C926       C1097   1.521       .  S
C927        C931   1.540       .  S
C927        C933   1.569       .  S
C927        C932   1.547       .  S
C927       C1107   1.518       .  S
C928        C936   1.389       .  A
C928        C931   1.377       .  A
C929        C940   1.391       .  A
C929        C932   1.388       .  A
C930        C944   1.403       .  A
C930        C933   1.393       .  A
C931        C934   1.389       .  A
C932        C938   1.390       .  A
C933        C941   1.401       .  A
C934        N935   1.361       .  A
C934        H947   1.082       .  S
N935        C936   1.364       .  A
C936        H937   1.082       .  S
C938        N939   1.365       .  A
C938        H948   1.082       .  S
N939        C940   1.366       .  A
C940        H946   1.082       .  S
C941        N942   1.355       .  A
C941        H943   1.075       .  S
N942        C944   1.364       .  A
C944        H945   1.081       .  S
C949        C951   1.537       .  S
C949        C953   1.545       .  S
C949        C952   1.561       .  S
C949       C1077   1.497       .  S
C950        C954   1.569       .  S
C950        C956   1.543       .  S
C950        C955   1.546       .  S
C950       C1084   1.500       .  S
C951        C959   1.387       .  A
C951        C954   1.382       .  A
C952        C963   1.397       .  A
C952        C955   1.386       .  A
C953        C967   1.391       .  A
C953        C956   1.374       .  A
C954        C957   1.404       .  A
C955        C961   1.389       .  A
C956        C964   1.392       .  A
C957        N958   1.364       .  A
C957        H970   1.079       .  S
N958        C959   1.361       .  A
C959        H960   1.082       .  S
C961        N962   1.362       .  A
C961        H971   1.082       .  S
N962        C963   1.359       .  A
C963        H969   1.080       .  S
C964        N965   1.365       .  A
C964        H966   1.082       .  S
N965        C967   1.364       .  A
C967        H968   1.082       .  S
C972        C974   1.554       .  S
C972        C976   1.549       .  S
C972        C975   1.555       .  S
C972       C1067   1.503       .  S
C973        C977   1.534       .  S
C973        C979   1.554       .  S
C973        C978   1.561       .  S
C973       C1057   1.502       .  S
C974        C982   1.397       .  A
C974        C977   1.371       .  A
C975        C986   1.392       .  A
C975        C978   1.388       .  A
C976        C990   1.392       .  A
C976        C979   1.384       .  A
C977        C980   1.387       .  A
C978        C984   1.395       .  A
C979        C987   1.396       .  A
C980        N981   1.355       .  A
C980        H993   1.082       .  S
N981        C982   1.357       .  A
C982        H983   1.081       .  S
C984        N985   1.363       .  A
C984        H994   1.081       .  S
N985        C986   1.364       .  A
C986        H992   1.081       .  S
C987        N988   1.369       .  A
C987        H989   1.082       .  S
N988        C990   1.367       .  A
C990        H991   1.082       .  S
O995       C1003   1.271       .  A
O995      Co2227   2.029   1_455  S
O996       C1004   1.284       .  A
O996      Co1016   2.070       .  S
O997       C1005   1.248       .  A
O997      Co1017   1.954   1_556  S
O998       C1006   1.264       .  A
O998      Co1018   1.945   1_554  S
O999       C1005   1.255       .  A
O999      Co2228   1.977   1_455  S
O1000      C1006   1.283       .  A
O1000     Co1015   2.041       .  S
O1001      C1004   1.261       .  A
O1001     Co1018   1.888       .  S
O1002      C1003   1.252       .  A
O1002     Co1017   1.935       .  S
C1003      C1204   1.453       .  S
C1004      C1134   1.436       .  S
C1005      C1087   1.438       .  S
C1006      C1094   1.458       .  S
O1007      C1020   1.237       .  A
O1008      C1021   1.260       .  A
O1008     Co1622   1.963   1_465  S
O1009      C1022   1.270       .  A
O1010      C1023   1.290       .  A
O1011      C1023   1.258       .  A
O1012      C1022   1.247       .  A
O1012     Co1621   1.926   1_455  S
O1013      C1020   1.249       .  A
O1014      C1021   1.271       .  A
Co1015     O2207   2.029       .  S
Co1015     O1618   1.926       .  S
Co1015     O1019   1.986       .  S
Co1016     O2211   1.977       .  S
Co1016     O1614   1.963       .  S
Co1016     O1019   1.980   1_556  S
Co1017     O2231   1.992   1_455  S
Co1018     O1019   1.997   1_556  S
O1019     Co2229   1.992       .  S
C1020      C1184   1.434       .  S
C1021      C1154   1.454       .  S
C1022      C1054   1.457       .  S
C1023      C1127   1.457       .  S
O1024      C1032   1.279       .  A
O1024     Co1044   2.020       .  S
O1025      C1033   1.259       .  A
O1025     Co1045   2.027       .  S
O1026      C1034   1.263       .  A
O1026     Co1046   1.870       .  S
O1027      C1035   1.247       .  A
O1027     Co1047   1.915       .  S
O1028      C1034   1.287       .  A
O1028     Co1045   2.068       .  S
O1029      C1035   1.269       .  A
O1029     Co1044   2.015       .  S
O1030      C1033   1.237       .  A
O1030     Co1047   1.924       .  S
O1031      C1032   1.260       .  A
O1031     Co1046   1.933       .  S
C1032      C1194   1.459       .  S
C1033      C1167   1.453       .  S
C1034      C1074   1.444       .  S
C1035      C1064   1.452       .  S
O1036      C1049   1.246       .  A
O1036     Co1044   1.929       .  S
O1037      C1050   1.265       .  A
O1037     Co1045   1.867       .  S
O1038      C1051   1.258       .  A
O1038     Co1046   2.014       .  S
O1039      C1052   1.277       .  A
O1039     Co1047   2.022       .  S
O1040      C1052   1.257       .  A
O1040     Co1045   1.937       .  S
O1041      C1051   1.245       .  A
O1041     Co1044   1.950       .  S
O1042      C1049   1.271       .  A
O1042     Co1047   2.007       .  S
O1043      C1050   1.288       .  A
O1043     Co1046   2.073       .  S
Co1044     O1048   1.968       .  S
Co1045     O1048   1.975       .  S
Co1046     O1048   1.969       .  S
Co1047     O1048   1.969       .  S
C1049      C1174   1.457       .  S
C1050      C1147   1.431       .  S
C1051      C1104   1.449       .  S
C1052      C1114   1.444       .  S
C1053      C1054   1.393       .  A
C1053      C1058   1.382       .  A
C1053      H1060   1.068       .  S
C1054      C1055   1.406       .  A
C1055      C1056   1.384       .  A
C1055     Br1062   1.924       .  S
C1056      C1057   1.407       .  A
C1056      H1061   1.073       .  S
C1057      C1058   1.416       .  A
C1058     Br1059   1.925       .  S
C1063      C1064   1.410       .  A
C1063      C1068   1.386       .  A
C1063      H1070   1.084       .  S
C1064      C1065   1.402       .  A
C1065      C1066   1.380       .  A
C1065     Br1072   1.921       .  S
C1066      C1067   1.403       .  A
C1066      H1071   1.078       .  S
C1067      C1068   1.404       .  A
C1068     Br1069   1.925       .  S
C1073      C1074   1.399       .  A
C1073      C1078   1.385       .  A
C1073      H1080   1.084       .  S
C1074      C1075   1.403       .  A
C1075      C1076   1.378       .  A
C1075     Br1082   1.910       .  S
C1076      C1077   1.396       .  A
C1076      H1081   1.074       .  S
C1077      C1078   1.414       .  A
C1078     Br1079   1.927       .  S
C1083      C1084   1.389       .  A
C1083      C1088   1.370       .  A
C1083      H1090   1.072       .  S
C1084      C1085   1.421       .  A
C1085      C1086   1.393       .  A
C1085     Br1092   1.920       .  S
C1086      C1087   1.394       .  A
C1086      H1091   1.084       .  S
C1087      C1088   1.401       .  A
C1088     Br1089   1.904       .  S
C1093      C1094   1.393       .  A
C1093      C1098   1.399       .  A
C1093      H1100   1.079       .  S
C1094      C1095   1.404       .  A
C1095      C1096   1.384       .  A
C1095     Br1102   1.915       .  S
C1096      C1097   1.402       .  A
C1096      H1101   1.076       .  S
C1097      C1098   1.422       .  A
C1098     Br1099   1.917       .  S
C1103      C1104   1.403       .  A
C1103      C1108   1.398       .  A
C1103      H1110   1.084       .  S
C1104      C1105   1.401       .  A
C1105      C1106   1.379       .  A
C1105     Br1112   1.910       .  S
C1106      C1107   1.391       .  A
C1106      H1111   1.069       .  S
C1107      C1108   1.416       .  A
C1108     Br1109   1.920       .  S
C1113      C1114   1.393       .  A
C1113      C1118   1.392       .  A
C1113      H1120   1.084       .  S
C1114      C1115   1.409       .  A
C1115      C1116   1.379       .  A
C1115     Br1122   1.919       .  S
C1116      C1117   1.395       .  A
C1116      H1121   1.077       .  S
C1117      C1118   1.418       .  A
C1118     Br1119   1.919       .  S
C1123      C1124   1.404       .  A
C1123      C1128   1.384       .  A
C1123      H1130   1.081       .  S
C1124      C1125   1.402       .  A
C1125      C1126   1.384       .  A
C1125     Br1132   1.920       .  S
C1126      C1127   1.400       .  A
C1126      H1131   1.074       .  S
C1127      C1128   1.410       .  A
C1128     Br1129   1.924       .  S
C1133      C1134   1.394       .  A
C1133      C1138   1.393       .  A
C1133      H1140   1.084       .  S
C1134      C1135   1.395       .  A
C1135      C1136   1.378       .  A
C1135     Br1142   1.920       .  S
C1136      C1137   1.406       .  A
C1136      H1141   1.078       .  S
C1137      C1138   1.421       .  A
C1138     Br1139   1.924       .  S
C1143      C1144   1.399       .  A
C1143      C1148   1.373       .  A
C1143      H1150   1.071       .  S
C1144      C1145   1.420       .  A
C1145      C1146   1.389       .  A
C1145     Br1152   1.926       .  S
C1146      C1147   1.394       .  A
C1146      H1151   1.084       .  S
C1147      C1148   1.394       .  A
C1148     Br1149   1.913       .  S
C1153      C1154   1.396       .  A
C1153      C1158   1.397       .  A
C1153      H1160   1.080       .  S
C1154      C1155   1.401       .  A
C1155      C1156   1.382       .  A
C1155     Br1162   1.916   1_565  S
C1156      C1157   1.403       .  A
C1156      H1161   1.075       .  S
C1157      C1158   1.419       .  A
C1158     Br1159   1.922       .  S
C1163      C1164   1.401       .  A
C1163      C1168   1.381       .  A
C1163      H1170   1.082       .  S
C1164      C1165   1.407       .  A
C1165      C1166   1.386       .  A
C1165     Br1172   1.924       .  S
C1166      C1167   1.406       .  A
C1166      H1171   1.083       .  S
C1167      C1168   1.405       .  A
C1168     Br1169   1.909       .  S
C1173      C1174   1.402       .  A
C1173      C1178   1.387       .  A
C1173      H1180   1.083       .  S
C1174      C1175   1.418       .  A
C1175      C1176   1.379       .  A
C1175     Br1182   1.932       .  S
C1176      C1177   1.392       .  A
C1176      H1181   1.075       .  S
C1177      C1178   1.412       .  A
C1178     Br1179   1.926       .  S
C1183      C1184   1.400       .  A
C1183      C1188   1.385       .  A
C1183      H1190   1.082       .  S
C1184      C1185   1.399       .  A
C1185      C1186   1.379       .  A
C1185     Br1192   1.904       .  S
C1186      C1187   1.401       .  A
C1186      H1191   1.084       .  S
C1187      C1188   1.404       .  A
C1188     Br1189   1.926       .  S
C1193      C1194   1.403       .  A
C1193      C1198   1.387       .  A
C1193      H1200   1.084       .  S
C1194      C1195   1.402       .  A
C1195      C1196   1.388       .  A
C1195     Br1202   1.921       .  S
C1196      C1197   1.410       .  A
C1196      H1201   1.079       .  S
C1197      C1198   1.412       .  A
C1198     Br1199   1.919       .  S
C1203      C1204   1.394       .  A
C1203      C1208   1.398       .  A
C1203      H1210   1.080       .  S
C1204      C1205   1.405       .  A
C1205      C1206   1.372       .  A
C1205     Br1212   1.897       .  S
C1206      C1207   1.391       .  A
C1206      H1211   1.075       .  S
C1207      C1208   1.425       .  A
C1208     Br1209   1.919       .  S
C1213      C1215   1.573       .  S
C1213      C1217   1.535       .  S
C1213      C1216   1.543       .  S
C1213      C1813   1.507       .  S
C1214      C1218   1.559       .  S
C1214      C1220   1.559       .  S
C1214      C1219   1.542       .  S
C1214      C1803   1.507       .  S
C1215      C1223   1.403       .  A
C1215      C1218   1.389       .  A
C1216      C1227   1.393       .  A
C1216      C1219   1.378       .  A
C1217      C1231   1.383       .  A
C1217      C1220   1.380       .  A
C1218      C1221   1.396       .  A
C1219      C1225   1.387       .  A
C1220      C1228   1.401       .  A
C1221      N1222   1.362       .  A
C1221      H1234   1.082       .  S
N1222      C1223   1.367       .  A
N1222      C1496   1.471       .  S
C1223      H1224   1.081       .  S
C1225      N1226   1.363       .  A
C1225      H1235   1.082       .  S
N1226      C1227   1.366       .  A
N1226      C1256   1.463       .  S
C1227      H1233   1.082       .  S
C1228      N1229   1.372       .  A
C1228      H1230   1.082       .  S
N1229      C1231   1.356       .  A
N1229      C1314   1.464       .  S
C1231      H1232   1.083       .  S
N1236      C1241   1.359       .  A
N1236      H1268   1.042       .  S
N1237      C1244   1.359       .  A
N1237      C1245   1.359       .  A
N1238      C1243   1.362       .  A
N1238      H1269   1.041       .  S
N1239      C1246   1.360       .  A
N1239      C1247   1.359       .  A
C1240      C1248   1.384       .  A
C1240      C1256   1.423       .  A
C1241      C1257   1.424       .  A
C1241      C1249   1.383       .  A
C1242      C1250   1.387       .  A
C1242      C1259   1.432       .  A
C1243      C1258   1.428       .  A
C1243      C1251   1.385       .  A
C1244      C1256   1.423       .  A
C1244      C1252   1.384       .  A
C1245      C1259   1.427       .  A
C1245      C1253   1.387       .  A
C1246      C1254   1.384       .  A
C1246      C1257   1.424       .  A
C1247      C1255   1.387       .  A
C1247      C1258   1.428       .  A
C1248      H1260   1.080       .  S
C1249      H1261   1.080       .  S
C1250      H1262   1.082       .  S
C1251      H1263   1.082       .  S
C1252      C1253   1.377       .  A
C1252      H1264   1.082       .  S
C1253      H1265   1.081       .  S
C1254      C1255   1.378       .  A
C1254      H1266   1.082       .  S
C1255      H1267   1.082       .  S
C1257      N1545   1.464       .  S
C1258      N1286   1.465       .  S
C1259      N1591   1.468       .  S
C1270      C1272   1.549       .  S
C1270      C1274   1.563       .  S
C1270      C1273   1.548       .  S
C1270      C1783   1.500       .  S
C1271      C1275   1.547       .  S
C1271      C1277   1.542       .  S
C1271      C1276   1.555       .  S
C1271      C1793   1.490       .  S
C1272      C1280   1.393       .  A
C1272      C1275   1.377       .  A
C1273      C1284   1.390       .  A
C1273      C1276   1.381       .  A
C1274      C1288   1.399       .  A
C1274      C1277   1.381       .  A
C1275      C1278   1.393       .  A
C1276      C1282   1.394       .  A
C1277      C1285   1.391       .  A
C1278      N1279   1.364       .  A
C1278      H1291   1.082       .  S
N1279      C1280   1.369       .  A
N1279      C1461   1.469       .  S
C1280      H1281   1.082       .  S
C1282      N1283   1.363       .  A
C1282      H1292   1.079       .  S
N1283      C1284   1.360       .  A
N1283      C1347   1.464       .  S
C1284      H1290   1.082       .  S
C1285      N1286   1.362       .  A
C1285      H1287   1.082       .  S
N1286      C1288   1.362       .  A
C1288      H1289   1.080       .  S
N1293      C1298   1.362       .  A
N1293      C1903   1.363   1_545  A
N1293      H1325   1.040       .  S
N1294      C1301   1.362       .  A
N1294      C1302   1.361       .  A
N1295      C1300   1.362       .  A
N1295      C1905   1.359   1_545  A
N1295      H1326   1.041       .  S
N1296      C1303   1.358       .  A
N1296      C1304   1.359       .  A
C1297      C1305   1.385       .  A
C1297      C1313   1.433       .  A
C1297      N1899   1.363       .  A
C1298      C1314   1.432       .  A
C1298      C1306   1.386       .  A
C1299      C1307   1.388       .  A
C1299      C1316   1.429       .  A
C1299      N1901   1.359       .  A
C1300      C1315   1.427       .  A
C1300      C1308   1.385       .  A
C1301      C1313   1.431       .  A
C1301      C1309   1.385       .  A
C1302      C1316   1.429       .  A
C1302      C1310   1.385       .  A
C1303      C1311   1.383       .  A
C1303      C1314   1.422       .  A
C1304      C1312   1.384       .  A
C1304      C1315   1.422       .  A
C1305      C1912   1.382       .  A
C1305      H1317   1.079       .  S
C1306      C1911   1.382   1_545  A
C1306      H1318   1.082       .  S
C1307      C1914   1.380       .  A
C1307      H1319   1.082       .  S
C1308      C1913   1.380   1_545  A
C1308      H1320   1.082       .  S
C1309      C1310   1.379       .  A
C1309      H1321   1.081       .  S
C1310      H1322   1.082       .  S
C1311      C1312   1.375       .  A
C1311      H1323   1.079       .  S
C1312      H1324   1.082       .  S
C1313      N1594   1.471       .  S
C1315      N1571   1.465       .  S
C1316      N1377   1.463       .  S
N1327      C1332   1.357       .  A
N1327      C1937   1.359   1_545  A
N1327      H1359   1.041       .  S
N1328      C1335   1.361       .  A
N1328      C1336   1.359       .  A
N1329      C1334   1.361       .  A
N1329      C1939   1.361   1_545  A
N1329      H1360   1.040       .  S
N1330      C1337   1.359       .  A
N1330      C1338   1.360       .  A
C1331      C1339   1.386       .  A
C1331      C1347   1.423       .  A
C1331      N1933   1.359       .  A
C1332      C1348   1.422       .  A
C1332      C1340   1.386       .  A
C1333      C1341   1.385       .  A
C1333      C1350   1.428       .  A
C1333      N1935   1.361       .  A
C1334      C1349   1.431       .  A
C1334      C1342   1.387       .  A
C1335      C1347   1.425       .  A
C1335      C1343   1.384       .  A
C1336      C1350   1.424       .  A
C1336      C1344   1.382       .  A
C1337      C1345   1.384       .  A
C1337      C1348   1.426       .  A
C1338      C1346   1.385       .  A
C1338      C1349   1.426       .  A
C1339      C1946   1.380       .  A
C1339      H1351   1.082       .  S
C1340      C1945   1.380   1_545  A
C1340      H1352   1.082       .  S
C1341      C1948   1.382       .  A
C1341      H1353   1.082       .  S
C1342      C1947   1.382   1_545  A
C1342      H1354   1.082       .  S
C1343      C1344   1.375       .  A
C1343      H1355   1.082       .  S
C1344      H1356   1.078       .  S
C1345      C1346   1.378       .  A
C1345      H1357   1.080       .  S
C1346      H1358   1.082       .  S
C1348      N1541   1.459       .  S
C1349      N1427   1.465       .  S
C1350      N1522   1.466       .  S
C1361      C1363   1.546       .  S
C1361      C1365   1.566       .  S
C1361      C1364   1.558       .  S
C1361      C1763   1.517       .  S
C1362      C1366   1.545       .  S
C1362      C1368   1.535       .  S
C1362      C1367   1.549       .  S
C1362      C1770   1.499       .  S
C1363      C1371   1.391       .  A
C1363      C1366   1.379       .  A
C1364      C1375   1.393       .  A
C1364      C1367   1.389       .  A
C1365      C1379   1.397       .  A
C1365      C1368   1.383       .  A
C1366      C1369   1.389       .  A
C1367      C1373   1.388       .  A
C1368      C1376   1.388       .  A
C1369      N1370   1.356       .  A
C1369      H1382   1.082       .  S
N1370      C1371   1.366       .  A
N1370      C1463   1.458       .  S
C1371      H1372   1.082       .  S
C1373      N1374   1.361       .  A
C1373      H1383   1.081       .  S
N1374      C1375   1.368       .  A
N1374      C1405   1.465       .  S
C1375      H1381   1.082       .  S
C1376      N1377   1.361       .  A
C1376      H1378   1.082       .  S
N1377      C1379   1.364       .  A
C1379      H1380   1.081       .  S
N1384      C1389   1.362       .  A
N1384      C1388   1.359       .  A
N1384      H1416   1.040       .  S
N1385      C1393   1.358       .  A
N1386      C1391   1.360       .  A
N1386      C1390   1.362       .  A
N1386      H1417   1.041       .  S
N1387      C1395   1.357       .  A
C1388      C1396   1.386       .  A
C1388      C1404   1.428       .  A
C1389      C1405   1.430       .  A
C1389      C1397   1.387       .  A
C1390      C1398   1.387       .  A
C1390      C1407   1.432       .  A
C1391      C1406   1.428       .  A
C1391      C1399   1.386       .  A
C1392      C1404   1.419       .  A
C1392      C1400   1.382       .  A
C1393      C1407   1.417       .  A
C1393      C1401   1.383       .  A
C1394      C1402   1.385       .  A
C1394      C1405   1.423       .  A
C1395      C1403   1.386       .  A
C1395      C1406   1.424       .  A
C1396      C1397   1.383       .  A
C1396      H1408   1.082       .  S
C1397      H1409   1.082       .  S
C1398      C1399   1.382       .  A
C1398      H1410   1.082       .  S
C1399      H1411   1.082       .  S
C1400      H1412   1.077       .  S
C1401      H1413   1.082       .  S
C1402      H1414   1.082       .  S
C1403      H1415   1.082       .  S
C1404      N1568   1.459       .  S
C1406      N1525   1.461       .  S
C1407      N1431   1.464       .  S
C1418      C1420   1.545       .  S
C1418      C1422   1.538       .  S
C1418      C1421   1.564       .  S
C1418      C1750   1.501       .  S
C1419      C1423   1.564       .  S
C1419      C1425   1.536       .  S
C1419      C1424   1.553       .  S
C1419      C1743   1.504       .  S
C1420      C1428   1.391       .  A
C1420      C1423   1.384       .  A
C1421      C1432   1.396       .  A
C1421      C1424   1.390       .  A
C1422      C1436   1.391       .  A
C1422      C1425   1.370       .  A
C1423      C1426   1.396       .  A
C1424      C1430   1.394       .  A
C1425      C1433   1.388       .  A
C1426      N1427   1.364       .  A
C1426      H1439   1.082       .  S
N1427      C1428   1.363       .  A
C1428      H1429   1.082       .  S
C1430      N1431   1.365       .  A
C1430      H1440   1.082       .  S
N1431      C1432   1.357       .  A
C1432      H1438   1.080       .  S
C1433      N1434   1.363       .  A
C1433      H1435   1.082       .  S
N1434      C1436   1.365       .  A
N1434      C1498   1.462       .  S
C1436      H1437   1.082       .  S
N1441      C1446   1.359       .  A
N1441      C1445   1.359       .  A
N1441      H1473   1.039       .  S
N1442      C1449   1.365   1_556  A
N1442      C1450   1.363       .  A
N1443      C1448   1.363       .  A
N1443      C1447   1.361       .  A
N1443      H1474   1.037       .  S
N1444      C1451   1.355   1_556  A
N1444      C1452   1.354       .  A
C1445      C1453   1.386       .  A
C1445      C1461   1.425       .  A
C1446      C1462   1.423       .  A
C1446      C1454   1.386       .  A
C1447      C1455   1.387       .  A
C1447      C1464   1.431       .  A
C1448      C1463   1.430       .  A
C1448      C1456   1.386       .  A
C1449      C1461   1.433       .  A
C1449      C1457   1.384       .  A
C1450      C1464   1.435       .  A
C1450      C1458   1.384       .  A
C1451      C1459   1.385       .  A
C1451      C1462   1.415       .  A
C1452      C1460   1.385       .  A
C1452      C1463   1.415       .  A
C1453      C1454   1.379       .  A
C1453      H1465   1.081       .  S
C1454      H1466   1.082       .  S
C1455      C1456   1.381       .  A
C1455      H1467   1.082       .  S
C1456      H1468   1.082       .  S
C1457      C1458   1.380   1_554  A
C1457      H1469   1.082       .  S
C1458      H1470   1.078       .  S
C1459      C1460   1.373   1_554  A
C1459      H1471   1.082       .  S
C1460      H1472   1.081       .  S
C1462      N1587   1.454       .  S
C1464      N1518   1.471       .  S
N1475      C1480   1.365       .  A
N1475      C1479   1.365       .  A
N1475      H1507   1.041       .  S
N1476      C1483   1.359       .  A
N1476      C1484   1.359   1_554  A
N1477      C1482   1.360       .  A
N1477      C1481   1.361       .  A
N1477      H1508   1.041       .  S
N1478      C1485   1.361       .  A
N1478      C1486   1.361   1_554  A
C1479      C1487   1.387       .  A
C1479      C1495   1.437       .  A
C1480      C1496   1.435       .  A
C1480      C1488   1.386       .  A
C1481      C1489   1.384       .  A
C1481      C1498   1.423       .  A
C1482      C1497   1.428       .  A
C1482      C1490   1.387       .  A
C1483      C1495   1.425       .  A
C1483      C1491   1.386       .  A
C1484      C1498   1.422       .  A
C1484      C1492   1.384       .  A
C1485      C1493   1.386       .  A
C1485      C1496   1.429       .  A
C1486      C1494   1.385       .  A
C1486      C1497   1.429       .  A
C1487      C1488   1.382       .  A
C1487      H1499   1.082       .  S
C1488      H1500   1.082       .  S
C1489      C1490   1.378       .  A
C1489      H1501   1.081       .  S
C1490      H1502   1.080       .  S
C1491      C1492   1.376   1_554  A
C1491      H1503   1.081       .  S
C1492      H1504   1.082       .  S
C1493      C1494   1.379   1_554  A
C1493      H1505   1.082       .  S
C1494      H1506   1.082       .  S
C1495      N1548   1.471       .  S
C1497      N1564   1.467       .  S
C1509      C1511   1.555       .  S
C1509      C1513   1.533       .  S
C1509      C1512   1.554       .  S
C1509      C1730   1.497       .  S
C1510      C1514   1.570       .  S
C1510      C1516   1.537       .  S
C1510      C1515   1.552       .  S
C1510      C1723   1.502       .  S
C1511      C1519   1.396       .  A
C1511      C1514   1.390       .  A
C1512      C1523   1.393       .  A
C1512      C1515   1.381       .  A
C1513      C1527   1.384       .  A
C1513      C1516   1.371       .  A
C1514      C1517   1.398       .  A
C1515      C1521   1.395       .  A
C1516      C1524   1.390       .  A
C1517      N1518   1.365       .  A
C1517      H1530   1.081       .  S
N1518      C1519   1.364       .  A
C1519      H1520   1.082       .  S
C1521      N1522   1.366       .  A
C1521      H1531   1.082       .  S
N1522      C1523   1.361       .  A
C1523      H1529   1.081       .  S
C1524      N1525   1.365       .  A
C1524      H1526   1.082       .  S
N1525      C1527   1.363       .  A
C1527      H1528   1.082       .  S
C1532      C1534   1.542       .  S
C1532      C1536   1.570       .  S
C1532      C1535   1.552       .  S
C1532      C1703   1.521       .  S
C1533      C1537   1.540       .  S
C1533      C1539   1.569       .  S
C1533      C1538   1.547       .  S
C1533      C1713   1.518       .  S
C1534      C1542   1.389       .  A
C1534      C1537   1.377       .  A
C1535      C1546   1.391       .  A
C1535      C1538   1.388       .  A
C1536      C1550   1.403       .  A
C1536      C1539   1.393       .  A
C1537      C1540   1.389       .  A
C1538      C1544   1.390       .  A
C1539      C1547   1.401       .  A
C1540      N1541   1.361       .  A
C1540      H1553   1.082       .  S
N1541      C1542   1.364       .  A
C1542      H1543   1.082       .  S
C1544      N1545   1.365       .  A
C1544      H1554   1.082       .  S
N1545      C1546   1.366       .  A
C1546      H1552   1.082       .  S
C1547      N1548   1.355       .  A
C1547      H1549   1.075       .  S
N1548      C1550   1.364       .  A
C1550      H1551   1.081       .  S
C1555      C1557   1.537       .  S
C1555      C1559   1.545       .  S
C1555      C1558   1.561       .  S
C1555      C1683   1.497       .  S
C1556      C1560   1.569       .  S
C1556      C1562   1.543       .  S
C1556      C1561   1.546       .  S
C1556      C1690   1.500       .  S
C1557      C1565   1.387       .  A
C1557      C1560   1.382       .  A
C1558      C1569   1.397       .  A
C1558      C1561   1.386       .  A
C1559      C1573   1.391       .  A
C1559      C1562   1.374       .  A
C1560      C1563   1.404       .  A
C1561      C1567   1.389       .  A
C1562      C1570   1.392       .  A
C1563      N1564   1.364       .  A
C1563      H1576   1.079       .  S
N1564      C1565   1.361       .  A
C1565      H1566   1.082       .  S
C1567      N1568   1.362       .  A
C1567      H1577   1.082       .  S
N1568      C1569   1.359       .  A
C1569      H1575   1.080       .  S
C1570      N1571   1.365       .  A
C1570      H1572   1.082       .  S
N1571      C1573   1.364       .  A
C1573      H1574   1.082       .  S
C1578      C1580   1.554       .  S
C1578      C1582   1.549       .  S
C1578      C1581   1.555       .  S
C1578      C1673   1.503       .  S
C1579      C1583   1.534       .  S
C1579      C1585   1.554       .  S
C1579      C1584   1.561       .  S
C1579      C1663   1.502       .  S
C1580      C1588   1.397       .  A
C1580      C1583   1.371       .  A
C1581      C1592   1.392       .  A
C1581      C1584   1.388       .  A
C1582      C1596   1.392       .  A
C1582      C1585   1.384       .  A
C1583      C1586   1.387       .  A
C1584      C1590   1.395       .  A
C1585      C1593   1.396       .  A
C1586      N1587   1.355       .  A
C1586      H1599   1.082       .  S
N1587      C1588   1.357       .  A
C1588      H1589   1.081       .  S
C1590      N1591   1.363       .  A
C1590      H1600   1.081       .  S
N1591      C1592   1.364       .  A
C1592      H1598   1.081       .  S
C1593      N1594   1.369       .  A
C1593      H1595   1.082       .  S
N1594      C1596   1.367       .  A
C1596      H1597   1.082       .  S
O1601      C1609   1.271       .  A
O1602      C1610   1.284       .  A
O1602     Co1622   2.070       .  S
O1603      C1611   1.248       .  A
O1603     Co1623   1.954   1_556  S
O1604      C1612   1.264       .  A
O1604     Co1624   1.945   1_554  S
O1605      C1611   1.255       .  A
O1606      C1612   1.283       .  A
O1606     Co1621   2.041   1_545  S
O1607      C1610   1.261       .  A
O1607     Co1624   1.888       .  S
O1608      C1609   1.252       .  A
O1608     Co1623   1.935       .  S
C1609      C1810   1.453       .  S
C1610      C1740   1.436       .  S
C1611      C1693   1.438       .  S
C1612      C1700   1.458       .  S
O1613      C1626   1.237       .  A
O1613     Co2227   1.947       .  S
O1614      C1627   1.260       .  A
O1615      C1628   1.270       .  A
O1615     Co2229   2.013       .  S
O1616      C1629   1.290       .  A
O1616     Co2230   2.078       .  S
O1617      C1629   1.258       .  A
O1617     Co2228   1.875       .  S
O1618      C1628   1.247       .  A
O1619      C1626   1.249       .  A
O1619     Co2230   1.985   1_554  S
O1620      C1627   1.271       .  A
O1620     Co2229   2.014   1_556  S
Co1621     O2219   1.947       .  S
Co1621     O1625   1.986   1_565  S
Co1622     O2223   1.875   1_545  S
Co1622     O1625   1.980   1_556  S
Co1623     O2221   2.013   1_545  S
Co1623     O2226   2.014   1_544  S
Co1624     O2222   2.078   1_545  S
Co1624     O2225   1.985   1_546  S
Co1624     O1625   1.997   1_556  S
C1626      C1790   1.434       .  S
C1627      C1760   1.454       .  S
C1628      C1660   1.457       .  S
C1629      C1733   1.457       .  S
O1630      C1638   1.279       .  A
O1630     Co1650   2.020       .  S
O1631      C1639   1.259       .  A
O1631     Co1651   2.027       .  S
O1632      C1640   1.263       .  A
O1632     Co1652   1.870       .  S
O1633      C1641   1.247       .  A
O1633     Co1653   1.915       .  S
O1634      C1640   1.287       .  A
O1634     Co1651   2.068       .  S
O1635      C1641   1.269       .  A
O1635     Co1650   2.015       .  S
O1636      C1639   1.237       .  A
O1636     Co1653   1.924       .  S
O1637      C1638   1.260       .  A
O1637     Co1652   1.933       .  S
C1638      C1800   1.459       .  S
C1639      C1773   1.453       .  S
C1640      C1680   1.444       .  S
C1641      C1670   1.452       .  S
O1642      C1655   1.246       .  A
O1642     Co1650   1.929       .  S
O1643      C1656   1.265       .  A
O1643     Co1651   1.867       .  S
O1644      C1657   1.258       .  A
O1644     Co1652   2.014       .  S
O1645      C1658   1.277       .  A
O1645     Co1653   2.022       .  S
O1646      C1658   1.257       .  A
O1646     Co1651   1.937       .  S
O1647      C1657   1.245       .  A
O1647     Co1650   1.950       .  S
O1648      C1655   1.271       .  A
O1648     Co1653   2.007       .  S
O1649      C1656   1.288       .  A
O1649     Co1652   2.073       .  S
Co1650     O1654   1.968       .  S
Co1651     O1654   1.975       .  S
Co1652     O1654   1.969       .  S
Co1653     O1654   1.969       .  S
C1655      C1780   1.457       .  S
C1656      C1753   1.431       .  S
C1657      C1710   1.449       .  S
C1658      C1720   1.444       .  S
C1659      C1660   1.393       .  A
C1659      C1664   1.382       .  A
C1659      H1666   1.068       .  S
C1660      C1661   1.406       .  A
C1661      C1662   1.384       .  A
C1661     Br1668   1.924       .  S
C1662      C1663   1.407       .  A
C1662      H1667   1.073       .  S
C1663      C1664   1.416       .  A
C1664     Br1665   1.925       .  S
C1669      C1670   1.410       .  A
C1669      C1674   1.386       .  A
C1669      H1676   1.084       .  S
C1670      C1671   1.402       .  A
C1671      C1672   1.380       .  A
C1671     Br1678   1.921       .  S
C1672      C1673   1.403       .  A
C1672      H1677   1.078       .  S
C1673      C1674   1.404       .  A
C1674     Br1675   1.925       .  S
C1679      C1680   1.399       .  A
C1679      C1684   1.385       .  A
C1679      H1686   1.084       .  S
C1680      C1681   1.403       .  A
C1681      C1682   1.378       .  A
C1681     Br1688   1.910       .  S
C1682      C1683   1.396       .  A
C1682      H1687   1.074       .  S
C1683      C1684   1.414       .  A
C1684     Br1685   1.927       .  S
C1689      C1690   1.389       .  A
C1689      C1694   1.370       .  A
C1689      H1696   1.072       .  S
C1690      C1691   1.421       .  A
C1691      C1692   1.393       .  A
C1691     Br1698   1.920       .  S
C1692      C1693   1.394       .  A
C1692      H1697   1.084       .  S
C1693      C1694   1.401       .  A
C1694     Br1695   1.904       .  S
C1699      C1700   1.393       .  A
C1699      C1704   1.399       .  A
C1699      H1706   1.079       .  S
C1700      C1701   1.404       .  A
C1701      C1702   1.384       .  A
C1701     Br1708   1.915       .  S
C1702      C1703   1.402       .  A
C1702      H1707   1.076       .  S
C1703      C1704   1.422       .  A
C1704     Br1705   1.917       .  S
C1709      C1710   1.403       .  A
C1709      C1714   1.398       .  A
C1709      H1716   1.084       .  S
C1710      C1711   1.401       .  A
C1711      C1712   1.379       .  A
C1711     Br1718   1.910       .  S
C1712      C1713   1.391       .  A
C1712      H1717   1.069       .  S
C1713      C1714   1.416       .  A
C1714     Br1715   1.920       .  S
C1719      C1720   1.393       .  A
C1719      C1724   1.392       .  A
C1719      H1726   1.084       .  S
C1720      C1721   1.409       .  A
C1721      C1722   1.379       .  A
C1721     Br1728   1.919       .  S
C1722      C1723   1.395       .  A
C1722      H1727   1.077       .  S
C1723      C1724   1.418       .  A
C1724     Br1725   1.919       .  S
C1729      C1730   1.404       .  A
C1729      C1734   1.384       .  A
C1729      H1736   1.081       .  S
C1730      C1731   1.402       .  A
C1731      C1732   1.384       .  A
C1731     Br1738   1.920       .  S
C1732      C1733   1.400       .  A
C1732      H1737   1.074       .  S
C1733      C1734   1.410       .  A
C1734     Br1735   1.924       .  S
C1739      C1740   1.394       .  A
C1739      C1744   1.393       .  A
C1739      H1746   1.084       .  S
C1740      C1741   1.395       .  A
C1741      C1742   1.378       .  A
C1741     Br1748   1.920       .  S
C1742      C1743   1.406       .  A
C1742      H1747   1.078       .  S
C1743      C1744   1.421       .  A
C1744     Br1745   1.924       .  S
C1749      C1750   1.399       .  A
C1749      C1754   1.373       .  A
C1749      H1756   1.071       .  S
C1750      C1751   1.420       .  A
C1751      C1752   1.389       .  A
C1751     Br1758   1.926       .  S
C1752      C1753   1.394       .  A
C1752      H1757   1.084       .  S
C1753      C1754   1.394       .  A
C1754     Br1755   1.913       .  S
C1759      C1760   1.396       .  A
C1759      C1764   1.397       .  A
C1759      H1766   1.080       .  S
C1760      C1761   1.401       .  A
C1761      C1762   1.382       .  A
C1761     Br1768   1.916       .  S
C1762      C1763   1.403       .  A
C1762      H1767   1.075       .  S
C1763      C1764   1.419       .  A
C1764     Br1765   1.922       .  S
C1769      C1770   1.401       .  A
C1769      C1774   1.381       .  A
C1769      H1776   1.082       .  S
C1770      C1771   1.407       .  A
C1771      C1772   1.386       .  A
C1771     Br1778   1.924       .  S
C1772      C1773   1.406       .  A
C1772      H1777   1.083       .  S
C1773      C1774   1.405       .  A
C1774     Br1775   1.909       .  S
C1779      C1780   1.402       .  A
C1779      C1784   1.387       .  A
C1779      H1786   1.083       .  S
C1780      C1781   1.418       .  A
C1781      C1782   1.379       .  A
C1781     Br1788   1.932       .  S
C1782      C1783   1.392       .  A
C1782      H1787   1.075       .  S
C1783      C1784   1.412       .  A
C1784     Br1785   1.926       .  S
C1789      C1790   1.400       .  A
C1789      C1794   1.385       .  A
C1789      H1796   1.082       .  S
C1790      C1791   1.399       .  A
C1791      C1792   1.379       .  A
C1791     Br1798   1.904       .  S
C1792      C1793   1.401       .  A
C1792      H1797   1.084       .  S
C1793      C1794   1.404       .  A
C1794     Br1795   1.926       .  S
C1799      C1800   1.403       .  A
C1799      C1804   1.387       .  A
C1799      H1806   1.084       .  S
C1800      C1801   1.402       .  A
C1801      C1802   1.388       .  A
C1801     Br1808   1.921       .  S
C1802      C1803   1.410       .  A
C1802      H1807   1.079       .  S
C1803      C1804   1.412       .  A
C1804     Br1805   1.919       .  S
C1809      C1810   1.394       .  A
C1809      C1814   1.398       .  A
C1809      H1816   1.080       .  S
C1810      C1811   1.405       .  A
C1811      C1812   1.372       .  A
C1811     Br1818   1.897       .  S
C1812      C1813   1.391       .  A
C1812      H1817   1.075       .  S
C1813      C1814   1.425       .  A
C1814     Br1815   1.919       .  S
C1819      C1821   1.573       .  S
C1819      C1823   1.535       .  S
C1819      C1822   1.543       .  S
C1819      C2419   1.507       .  S
C1820      C1824   1.559       .  S
C1820      C1826   1.559       .  S
C1820      C1825   1.542       .  S
C1820      C2409   1.507       .  S
C1821      C1829   1.403       .  A
C1821      C1824   1.389       .  A
C1822      C1833   1.393       .  A
C1822      C1825   1.378       .  A
C1823      C1837   1.383       .  A
C1823      C1826   1.380       .  A
C1824      C1827   1.396       .  A
C1825      C1831   1.387       .  A
C1826      C1834   1.401       .  A
C1827      N1828   1.362       .  A
C1827      H1840   1.082       .  S
N1828      C1829   1.367       .  A
N1828      C2102   1.471       .  S
C1829      H1830   1.081       .  S
C1831      N1832   1.363       .  A
C1831      H1841   1.082       .  S
N1832      C1833   1.366       .  A
N1832      C1862   1.463       .  S
C1833      H1839   1.082       .  S
C1834      N1835   1.372       .  A
C1834      H1836   1.082       .  S
N1835      C1837   1.356       .  A
N1835      C1920   1.464       .  S
C1837      H1838   1.083       .  S
N1842      C1847   1.359       .  A
N1842      H1874   1.042       .  S
N1843      C1850   1.359       .  A
N1843      C1851   1.359       .  A
N1844      C1849   1.362       .  A
N1844      H1875   1.041       .  S
N1845      C1852   1.360       .  A
N1845      C1853   1.359       .  A
C1846      C1854   1.384       .  A
C1846      C1862   1.423       .  A
C1847      C1863   1.424       .  A
C1847      C1855   1.383       .  A
C1848      C1856   1.387       .  A
C1848      C1865   1.432       .  A
C1849      C1864   1.428       .  A
C1849      C1857   1.385       .  A
C1850      C1862   1.423       .  A
C1850      C1858   1.384       .  A
C1851      C1865   1.427       .  A
C1851      C1859   1.387       .  A
C1852      C1860   1.384       .  A
C1852      C1863   1.424       .  A
C1853      C1861   1.387       .  A
C1853      C1864   1.428       .  A
C1854      H1866   1.080       .  S
C1855      H1867   1.080       .  S
C1856      H1868   1.082       .  S
C1857      H1869   1.082       .  S
C1858      C1859   1.377       .  A
C1858      H1870   1.082       .  S
C1859      H1871   1.081       .  S
C1860      C1861   1.378       .  A
C1860      H1872   1.082       .  S
C1861      H1873   1.082       .  S
C1863      N2151   1.464       .  S
C1864      N1892   1.465       .  S
C1865      N2197   1.468       .  S
C1876      C1878   1.549       .  S
C1876      C1880   1.563       .  S
C1876      C1879   1.548       .  S
C1876      C2389   1.500       .  S
C1877      C1881   1.547       .  S
C1877      C1883   1.542       .  S
C1877      C1882   1.555       .  S
C1877      C2399   1.490       .  S
C1878      C1886   1.393       .  A
C1878      C1881   1.377       .  A
C1879      C1890   1.390       .  A
C1879      C1882   1.381       .  A
C1880      C1894   1.399       .  A
C1880      C1883   1.381       .  A
C1881      C1884   1.393       .  A
C1882      C1888   1.394       .  A
C1883      C1891   1.391       .  A
C1884      N1885   1.364       .  A
C1884      H1897   1.082       .  S
N1885      C1886   1.369       .  A
N1885      C2067   1.469       .  S
C1886      H1887   1.082       .  S
C1888      N1889   1.363       .  A
C1888      H1898   1.079       .  S
N1889      C1890   1.360       .  A
N1889      C1953   1.464       .  S
C1890      H1896   1.082       .  S
C1891      N1892   1.362       .  A
C1891      H1893   1.082       .  S
N1892      C1894   1.362       .  A
C1894      H1895   1.080       .  S
N1899      C1904   1.362       .  A
N1899      H1931   1.040       .  S
N1900      C1907   1.362       .  A
N1900      C1908   1.361       .  A
N1901      C1906   1.362       .  A
N1901      H1932   1.041       .  S
N1902      C1909   1.358       .  A
N1902      C1910   1.359       .  A
C1903      C1911   1.385       .  A
C1903      C1919   1.433       .  A
C1904      C1920   1.432       .  A
C1904      C1912   1.386       .  A
C1905      C1913   1.388       .  A
C1905      C1922   1.429       .  A
C1906      C1921   1.427       .  A
C1906      C1914   1.385       .  A
C1907      C1919   1.431       .  A
C1907      C1915   1.385       .  A
C1908      C1922   1.429       .  A
C1908      C1916   1.385       .  A
C1909      C1917   1.383       .  A
C1909      C1920   1.422       .  A
C1910      C1918   1.384       .  A
C1910      C1921   1.422       .  A
C1911      H1923   1.079       .  S
C1912      H1924   1.082       .  S
C1913      H1925   1.082       .  S
C1914      H1926   1.082       .  S
C1915      C1916   1.379       .  A
C1915      H1927   1.081       .  S
C1916      H1928   1.082       .  S
C1917      C1918   1.375       .  A
C1917      H1929   1.079       .  S
C1918      H1930   1.082       .  S
C1919      N2200   1.471       .  S
C1921      N2177   1.465       .  S
C1922      N1983   1.463       .  S
N1933      C1938   1.357       .  A
N1933      H1965   1.041       .  S
N1934      C1941   1.361       .  A
N1934      C1942   1.359       .  A
N1935      C1940   1.361       .  A
N1935      H1966   1.041       .  S
N1936      C1943   1.359       .  A
N1936      C1944   1.360       .  A
C1937      C1945   1.386       .  A
C1937      C1953   1.423       .  A
C1938      C1954   1.422       .  A
C1938      C1946   1.386       .  A
C1939      C1947   1.385       .  A
C1939      C1956   1.428       .  A
C1940      C1955   1.431       .  A
C1940      C1948   1.387       .  A
C1941      C1953   1.425       .  A
C1941      C1949   1.384       .  A
C1942      C1956   1.424       .  A
C1942      C1950   1.382       .  A
C1943      C1951   1.384       .  A
C1943      C1954   1.426       .  A
C1944      C1952   1.385       .  A
C1944      C1955   1.426       .  A
C1945      H1957   1.082       .  S
C1946      H1958   1.082       .  S
C1947      H1959   1.082       .  S
C1948      H1960   1.082       .  S
C1949      C1950   1.375       .  A
C1949      H1961   1.082       .  S
C1950      H1962   1.078       .  S
C1951      C1952   1.378       .  A
C1951      H1963   1.080       .  S
C1952      H1964   1.082       .  S
C1954      N2147   1.459       .  S
C1955      N2033   1.465       .  S
C1956      N2128   1.466       .  S
C1967      C1969   1.546       .  S
C1967      C1971   1.566       .  S
C1967      C1970   1.558       .  S
C1967      C2369   1.517       .  S
C1968      C1972   1.545       .  S
C1968      C1974   1.535       .  S
C1968      C1973   1.549       .  S
C1968      C2376   1.499       .  S
C1969      C1977   1.391       .  A
C1969      C1972   1.379       .  A
C1970      C1981   1.393       .  A
C1970      C1973   1.389       .  A
C1971      C1985   1.397       .  A
C1971      C1974   1.383       .  A
C1972      C1975   1.389       .  A
C1973      C1979   1.388       .  A
C1974      C1982   1.388       .  A
C1975      N1976   1.356       .  A
C1975      H1988   1.082       .  S
N1976      C1977   1.366       .  A
N1976      C2069   1.458       .  S
C1977      H1978   1.082       .  S
C1979      N1980   1.361       .  A
C1979      H1989   1.081       .  S
N1980      C1981   1.368       .  A
N1980      C2011   1.465       .  S
C1981      H1987   1.082       .  S
C1982      N1983   1.361       .  A
C1982      H1984   1.082       .  S
N1983      C1985   1.364       .  A
C1985      H1986   1.081       .  S
N1990      C1995   1.362       .  A
N1990      C1994   1.359       .  A
N1990      H2022   1.040       .  S
N1991      C1999   1.358       .  A
N1992      C1997   1.360       .  A
N1992      C1996   1.362       .  A
N1992      H2023   1.041       .  S
N1993      C2001   1.357       .  A
C1994      C2002   1.386       .  A
C1994      C2010   1.428       .  A
C1995      C2011   1.430       .  A
C1995      C2003   1.387       .  A
C1996      C2004   1.387       .  A
C1996      C2013   1.432       .  A
C1997      C2012   1.428       .  A
C1997      C2005   1.386       .  A
C1998      C2010   1.419       .  A
C1998      C2006   1.382       .  A
C1999      C2013   1.417       .  A
C1999      C2007   1.383       .  A
C2000      C2008   1.385       .  A
C2000      C2011   1.423       .  A
C2001      C2009   1.386       .  A
C2001      C2012   1.424       .  A
C2002      C2003   1.383       .  A
C2002      H2014   1.082       .  S
C2003      H2015   1.082       .  S
C2004      C2005   1.382       .  A
C2004      H2016   1.082       .  S
C2005      H2017   1.082       .  S
C2006      H2018   1.077       .  S
C2007      H2019   1.082       .  S
C2008      H2020   1.082       .  S
C2009      H2021   1.082       .  S
C2010      N2174   1.459       .  S
C2012      N2131   1.461       .  S
C2013      N2037   1.464       .  S
C2024      C2026   1.545       .  S
C2024      C2028   1.538       .  S
C2024      C2027   1.564       .  S
C2024      C2356   1.501       .  S
C2025      C2029   1.564       .  S
C2025      C2031   1.536       .  S
C2025      C2030   1.553       .  S
C2025      C2349   1.504       .  S
C2026      C2034   1.391       .  A
C2026      C2029   1.384       .  A
C2027      C2038   1.396       .  A
C2027      C2030   1.390       .  A
C2028      C2042   1.391       .  A
C2028      C2031   1.370       .  A
C2029      C2032   1.396       .  A
C2030      C2036   1.394       .  A
C2031      C2039   1.388       .  A
C2032      N2033   1.364       .  A
C2032      H2045   1.082       .  S
N2033      C2034   1.363       .  A
C2034      H2035   1.082       .  S
C2036      N2037   1.365       .  A
C2036      H2046   1.082       .  S
N2037      C2038   1.357       .  A
C2038      H2044   1.080       .  S
C2039      N2040   1.363       .  A
C2039      H2041   1.082       .  S
N2040      C2042   1.365       .  A
N2040      C2104   1.462       .  S
C2042      H2043   1.082       .  S
N2047      C2052   1.359       .  A
N2047      C2051   1.359       .  A
N2047      H2079   1.039       .  S
N2048      C2055   1.365   1_556  A
N2048      C2056   1.363       .  A
N2049      C2054   1.363       .  A
N2049      C2053   1.361       .  A
N2049      H2080   1.037       .  S
N2050      C2057   1.355   1_556  A
N2050      C2058   1.354       .  A
C2051      C2059   1.386       .  A
C2051      C2067   1.425       .  A
C2052      C2068   1.423       .  A
C2052      C2060   1.386       .  A
C2053      C2061   1.387       .  A
C2053      C2070   1.431       .  A
C2054      C2069   1.430       .  A
C2054      C2062   1.386       .  A
C2055      C2067   1.433       .  A
C2055      C2063   1.384       .  A
C2056      C2070   1.435       .  A
C2056      C2064   1.384       .  A
C2057      C2065   1.385       .  A
C2057      C2068   1.415       .  A
C2058      C2066   1.385       .  A
C2058      C2069   1.415       .  A
C2059      C2060   1.379       .  A
C2059      H2071   1.081       .  S
C2060      H2072   1.082       .  S
C2061      C2062   1.381       .  A
C2061      H2073   1.082       .  S
C2062      H2074   1.082       .  S
C2063      C2064   1.380   1_554  A
C2063      H2075   1.082       .  S
C2064      H2076   1.078       .  S
C2065      C2066   1.373   1_554  A
C2065      H2077   1.082       .  S
C2066      H2078   1.081       .  S
C2068      N2193   1.454       .  S
C2070      N2124   1.471       .  S
N2081      C2086   1.365       .  A
N2081      C2085   1.365       .  A
N2081      H2113   1.041       .  S
N2082      C2089   1.359       .  A
N2082      C2090   1.359   1_554  A
N2083      C2088   1.360       .  A
N2083      C2087   1.361       .  A
N2083      H2114   1.041       .  S
N2084      C2091   1.361       .  A
N2084      C2092   1.361   1_554  A
C2085      C2093   1.387       .  A
C2085      C2101   1.437       .  A
C2086      C2102   1.435       .  A
C2086      C2094   1.386       .  A
C2087      C2095   1.384       .  A
C2087      C2104   1.423       .  A
C2088      C2103   1.428       .  A
C2088      C2096   1.387       .  A
C2089      C2101   1.425       .  A
C2089      C2097   1.386       .  A
C2090      C2104   1.422       .  A
C2090      C2098   1.384       .  A
C2091      C2099   1.386       .  A
C2091      C2102   1.429       .  A
C2092      C2100   1.385       .  A
C2092      C2103   1.429       .  A
C2093      C2094   1.382       .  A
C2093      H2105   1.082       .  S
C2094      H2106   1.082       .  S
C2095      C2096   1.378       .  A
C2095      H2107   1.081       .  S
C2096      H2108   1.080       .  S
C2097      C2098   1.376   1_554  A
C2097      H2109   1.081       .  S
C2098      H2110   1.082       .  S
C2099      C2100   1.379   1_554  A
C2099      H2111   1.082       .  S
C2100      H2112   1.082       .  S
C2101      N2154   1.471       .  S
C2103      N2170   1.467       .  S
C2115      C2117   1.555       .  S
C2115      C2119   1.533       .  S
C2115      C2118   1.554       .  S
C2115      C2336   1.497       .  S
C2116      C2120   1.570       .  S
C2116      C2122   1.537       .  S
C2116      C2121   1.552       .  S
C2116      C2329   1.502       .  S
C2117      C2125   1.396       .  A
C2117      C2120   1.390       .  A
C2118      C2129   1.393       .  A
C2118      C2121   1.381       .  A
C2119      C2133   1.384       .  A
C2119      C2122   1.371       .  A
C2120      C2123   1.398       .  A
C2121      C2127   1.395       .  A
C2122      C2130   1.390       .  A
C2123      N2124   1.365       .  A
C2123      H2136   1.081       .  S
N2124      C2125   1.364       .  A
C2125      H2126   1.082       .  S
C2127      N2128   1.366       .  A
C2127      H2137   1.082       .  S
N2128      C2129   1.361       .  A
C2129      H2135   1.081       .  S
C2130      N2131   1.365       .  A
C2130      H2132   1.082       .  S
N2131      C2133   1.363       .  A
C2133      H2134   1.082       .  S
C2138      C2140   1.542       .  S
C2138      C2142   1.570       .  S
C2138      C2141   1.552       .  S
C2138      C2309   1.521       .  S
C2139      C2143   1.540       .  S
C2139      C2145   1.569       .  S
C2139      C2144   1.547       .  S
C2139      C2319   1.518       .  S
C2140      C2148   1.389       .  A
C2140      C2143   1.377       .  A
C2141      C2152   1.391       .  A
C2141      C2144   1.388       .  A
C2142      C2156   1.403       .  A
C2142      C2145   1.393       .  A
C2143      C2146   1.389       .  A
C2144      C2150   1.390       .  A
C2145      C2153   1.401       .  A
C2146      N2147   1.361       .  A
C2146      H2159   1.082       .  S
N2147      C2148   1.364       .  A
C2148      H2149   1.082       .  S
C2150      N2151   1.365       .  A
C2150      H2160   1.082       .  S
N2151      C2152   1.366       .  A
C2152      H2158   1.082       .  S
C2153      N2154   1.355       .  A
C2153      H2155   1.075       .  S
N2154      C2156   1.364       .  A
C2156      H2157   1.081       .  S
C2161      C2163   1.537       .  S
C2161      C2165   1.545       .  S
C2161      C2164   1.561       .  S
C2161      C2289   1.497       .  S
C2162      C2166   1.569       .  S
C2162      C2168   1.543       .  S
C2162      C2167   1.546       .  S
C2162      C2296   1.500       .  S
C2163      C2171   1.387       .  A
C2163      C2166   1.382       .  A
C2164      C2175   1.397       .  A
C2164      C2167   1.386       .  A
C2165      C2179   1.391       .  A
C2165      C2168   1.374       .  A
C2166      C2169   1.404       .  A
C2167      C2173   1.389       .  A
C2168      C2176   1.392       .  A
C2169      N2170   1.364       .  A
C2169      H2182   1.079       .  S
N2170      C2171   1.361       .  A
C2171      H2172   1.082       .  S
C2173      N2174   1.362       .  A
C2173      H2183   1.082       .  S
N2174      C2175   1.359       .  A
C2175      H2181   1.080       .  S
C2176      N2177   1.365       .  A
C2176      H2178   1.082       .  S
N2177      C2179   1.364       .  A
C2179      H2180   1.082       .  S
C2184      C2186   1.554       .  S
C2184      C2188   1.549       .  S
C2184      C2187   1.555       .  S
C2184      C2279   1.503       .  S
C2185      C2189   1.534       .  S
C2185      C2191   1.554       .  S
C2185      C2190   1.561       .  S
C2185      C2269   1.502       .  S
C2186      C2194   1.397       .  A
C2186      C2189   1.371       .  A
C2187      C2198   1.392       .  A
C2187      C2190   1.388       .  A
C2188      C2202   1.392       .  A
C2188      C2191   1.384       .  A
C2189      C2192   1.387       .  A
C2190      C2196   1.395       .  A
C2191      C2199   1.396       .  A
C2192      N2193   1.355       .  A
C2192      H2205   1.082       .  S
N2193      C2194   1.357       .  A
C2194      H2195   1.081       .  S
C2196      N2197   1.363       .  A
C2196      H2206   1.081       .  S
N2197      C2198   1.364       .  A
C2198      H2204   1.081       .  S
C2199      N2200   1.369       .  A
C2199      H2201   1.082       .  S
N2200      C2202   1.367       .  A
C2202      H2203   1.082       .  S
O2207      C2215   1.271       .  A
O2208      C2216   1.284       .  A
O2208     Co2228   2.070       .  S
O2209      C2217   1.248       .  A
O2209     Co2229   1.954   1_556  S
O2210      C2218   1.264       .  A
O2210     Co2230   1.945   1_554  S
O2211      C2217   1.255       .  A
O2212      C2218   1.283       .  A
O2212     Co2227   2.041       .  S
O2213      C2216   1.261       .  A
O2213     Co2230   1.888       .  S
O2214      C2215   1.252       .  A
O2214     Co2229   1.935       .  S
C2215      C2416   1.453       .  S
C2216      C2346   1.436       .  S
C2217      C2299   1.438       .  S
C2218      C2306   1.458       .  S
O2219      C2232   1.237       .  A
O2220      C2233   1.260       .  A
O2221      C2234   1.270       .  A
O2222      C2235   1.290       .  A
O2223      C2235   1.258       .  A
O2224      C2234   1.247       .  A
O2225      C2232   1.249       .  A
O2226      C2233   1.271       .  A
Co2227     O2231   1.986       .  S
Co2228     O2231   1.980   1_556  S
Co2230     O2231   1.997   1_556  S
C2232      C2396   1.434       .  S
C2233      C2366   1.454       .  S
C2234      C2266   1.457       .  S
C2235      C2339   1.457       .  S
O2236      C2244   1.279       .  A
O2236     Co2256   2.020       .  S
O2237      C2245   1.259       .  A
O2237     Co2257   2.027       .  S
O2238      C2246   1.263       .  A
O2238     Co2258   1.870       .  S
O2239      C2247   1.247       .  A
O2239     Co2259   1.915       .  S
O2240      C2246   1.287       .  A
O2240     Co2257   2.068       .  S
O2241      C2247   1.269       .  A
O2241     Co2256   2.015       .  S
O2242      C2245   1.237       .  A
O2242     Co2259   1.924       .  S
O2243      C2244   1.260       .  A
O2243     Co2258   1.933       .  S
C2244      C2406   1.459       .  S
C2245      C2379   1.453       .  S
C2246      C2286   1.444       .  S
C2247      C2276   1.452       .  S
O2248      C2261   1.246       .  A
O2248     Co2256   1.929       .  S
O2249      C2262   1.265       .  A
O2249     Co2257   1.867       .  S
O2250      C2263   1.258       .  A
O2250     Co2258   2.014       .  S
O2251      C2264   1.277       .  A
O2251     Co2259   2.022       .  S
O2252      C2264   1.257       .  A
O2252     Co2257   1.937       .  S
O2253      C2263   1.245       .  A
O2253     Co2256   1.950       .  S
O2254      C2261   1.271       .  A
O2254     Co2259   2.007       .  S
O2255      C2262   1.288       .  A
O2255     Co2258   2.073       .  S
Co2256     O2260   1.968       .  S
Co2257     O2260   1.975       .  S
Co2258     O2260   1.969       .  S
Co2259     O2260   1.969       .  S
C2261      C2386   1.457       .  S
C2262      C2359   1.431       .  S
C2263      C2316   1.449       .  S
C2264      C2326   1.444       .  S
C2265      C2266   1.393       .  A
C2265      C2270   1.382       .  A
C2265      H2272   1.068       .  S
C2266      C2267   1.406       .  A
C2267      C2268   1.384       .  A
C2267     Br2274   1.924       .  S
C2268      C2269   1.407       .  A
C2268      H2273   1.073       .  S
C2269      C2270   1.416       .  A
C2270     Br2271   1.925       .  S
C2275      C2276   1.410       .  A
C2275      C2280   1.386       .  A
C2275      H2282   1.084       .  S
C2276      C2277   1.402       .  A
C2277      C2278   1.380       .  A
C2277     Br2284   1.921       .  S
C2278      C2279   1.403       .  A
C2278      H2283   1.078       .  S
C2279      C2280   1.404       .  A
C2280     Br2281   1.925       .  S
C2285      C2286   1.399       .  A
C2285      C2290   1.385       .  A
C2285      H2292   1.084       .  S
C2286      C2287   1.403       .  A
C2287      C2288   1.378       .  A
C2287     Br2294   1.910       .  S
C2288      C2289   1.396       .  A
C2288      H2293   1.074       .  S
C2289      C2290   1.414       .  A
C2290     Br2291   1.927       .  S
C2295      C2296   1.389       .  A
C2295      C2300   1.370       .  A
C2295      H2302   1.072       .  S
C2296      C2297   1.421       .  A
C2297      C2298   1.393       .  A
C2297     Br2304   1.920       .  S
C2298      C2299   1.394       .  A
C2298      H2303   1.084       .  S
C2299      C2300   1.401       .  A
C2300     Br2301   1.904       .  S
C2305      C2306   1.393       .  A
C2305      C2310   1.399       .  A
C2305      H2312   1.079       .  S
C2306      C2307   1.404       .  A
C2307      C2308   1.384       .  A
C2307     Br2314   1.915       .  S
C2308      C2309   1.402       .  A
C2308      H2313   1.076       .  S
C2309      C2310   1.422       .  A
C2310     Br2311   1.917       .  S
C2315      C2316   1.403       .  A
C2315      C2320   1.398       .  A
C2315      H2322   1.084       .  S
C2316      C2317   1.401       .  A
C2317      C2318   1.379       .  A
C2317     Br2324   1.910       .  S
C2318      C2319   1.391       .  A
C2318      H2323   1.069       .  S
C2319      C2320   1.416       .  A
C2320     Br2321   1.920       .  S
C2325      C2326   1.393       .  A
C2325      C2330   1.392       .  A
C2325      H2332   1.084       .  S
C2326      C2327   1.409       .  A
C2327      C2328   1.379       .  A
C2327     Br2334   1.919       .  S
C2328      C2329   1.395       .  A
C2328      H2333   1.077       .  S
C2329      C2330   1.418       .  A
C2330     Br2331   1.919       .  S
C2335      C2336   1.404       .  A
C2335      C2340   1.384       .  A
C2335      H2342   1.081       .  S
C2336      C2337   1.402       .  A
C2337      C2338   1.384       .  A
C2337     Br2344   1.920       .  S
C2338      C2339   1.400       .  A
C2338      H2343   1.074       .  S
C2339      C2340   1.410       .  A
C2340     Br2341   1.924       .  S
C2345      C2346   1.394       .  A
C2345      C2350   1.393       .  A
C2345      H2352   1.084       .  S
C2346      C2347   1.395       .  A
C2347      C2348   1.378       .  A
C2347     Br2354   1.920       .  S
C2348      C2349   1.406       .  A
C2348      H2353   1.078       .  S
C2349      C2350   1.421       .  A
C2350     Br2351   1.924       .  S
C2355      C2356   1.399       .  A
C2355      C2360   1.373       .  A
C2355      H2362   1.071       .  S
C2356      C2357   1.420       .  A
C2357      C2358   1.389       .  A
C2357     Br2364   1.926       .  S
C2358      C2359   1.394       .  A
C2358      H2363   1.084       .  S
C2359      C2360   1.394       .  A
C2360     Br2361   1.913       .  S
C2365      C2366   1.396       .  A
C2365      C2370   1.397       .  A
C2365      H2372   1.080       .  S
C2366      C2367   1.401       .  A
C2367      C2368   1.382       .  A
C2367     Br2374   1.916   1_565  S
C2368      C2369   1.403       .  A
C2368      H2373   1.075       .  S
C2369      C2370   1.419       .  A
C2370     Br2371   1.922       .  S
C2375      C2376   1.401       .  A
C2375      C2380   1.381       .  A
C2375      H2382   1.082       .  S
C2376      C2377   1.407       .  A
C2377      C2378   1.386       .  A
C2377     Br2384   1.924       .  S
C2378      C2379   1.406       .  A
C2378      H2383   1.083       .  S
C2379      C2380   1.405       .  A
C2380     Br2381   1.909       .  S
C2385      C2386   1.402       .  A
C2385      C2390   1.387       .  A
C2385      H2392   1.083       .  S
C2386      C2387   1.418       .  A
C2387      C2388   1.379       .  A
C2387     Br2394   1.932       .  S
C2388      C2389   1.392       .  A
C2388      H2393   1.075       .  S
C2389      C2390   1.412       .  A
C2390     Br2391   1.926       .  S
C2395      C2396   1.400       .  A
C2395      C2400   1.385       .  A
C2395      H2402   1.082       .  S
C2396      C2397   1.399       .  A
C2397      C2398   1.379       .  A
C2397     Br2404   1.904       .  S
C2398      C2399   1.401       .  A
C2398      H2403   1.084       .  S
C2399      C2400   1.404       .  A
C2400     Br2401   1.926       .  S
C2405      C2406   1.403       .  A
C2405      C2410   1.387       .  A
C2405      H2412   1.084       .  S
C2406      C2407   1.402       .  A
C2407      C2408   1.388       .  A
C2407     Br2414   1.921       .  S
C2408      C2409   1.410       .  A
C2408      H2413   1.079       .  S
C2409      C2410   1.412       .  A
C2410     Br2411   1.919       .  S
C2415      C2416   1.394       .  A
C2415      C2420   1.398       .  A
C2415      H2422   1.080       .  S
C2416      C2417   1.405       .  A
C2417      C2418   1.372       .  A
C2417     Br2424   1.897       .  S
C2418      C2419   1.390       .  A
C2418      H2423   1.075       .  S
C2419      C2420   1.425       .  A
C2420     Br2421   1.919       .  S
