geometry optimzed in LAMMPS
_audit_creation_date              2020-12-01 
_audit_creation_method            'lammps2cif' 
_symmetry_space_group_name_H-M    'P1' 
_symmetry_Int_Tables_number       1 
_symmetry_cell_setting            triclinic 
loop_ 
_symmetry_equiv_pos_as_xyz 
  x,y,z 
_cell_length_a                    24.13648186 
_cell_length_b                    24.107352630496457 
_cell_length_c                    47.27621283555835 
_cell_angle_alpha                 90.44292301905976 
_cell_angle_beta                  89.9082192275081 
_cell_angle_gamma                 88.01357345874463 
loop_ 
_atom_site_label 
_atom_site_type_symbol 
_atom_site_fract_x 
_atom_site_fract_y 
_atom_site_fract_z 
_atom_site_charge 
C1          C  0.19423261  0.22515402  0.10313281     0.30800
C2          C  0.25029966  0.28403571  0.14197103     0.30800
C3          C  0.16340951  0.27934303  0.11375873    -0.05400
C4          C  0.20655278  0.19371475  0.13139541    -0.06200
C5          C  0.25180797  0.24456161  0.09414929    -0.06100
C6          C  0.19241332  0.30940510  0.13357964    -0.05400
C7          C  0.23526989  0.22425911  0.15130645    -0.06200
C8          C  0.28007278  0.27505936  0.11349902    -0.06100
C9          C  0.16015037  0.35706588  0.13985655    -0.31500
N10         N  0.11263900  0.35754221  0.12429131     0.15000
C11         C  0.11355037  0.30925979  0.10895090    -0.31500
H12         H  0.08082528  0.29749715  0.09472931     0.17000
C13         C  0.23782761  0.19244896  0.17583378    -0.30400
N14         N  0.21355721  0.14291670  0.17163693     0.13800
C15         C  0.19344989  0.14375854  0.14450787    -0.30400
C16         C  0.32891823  0.29064667  0.10040862    -0.30700
N17         N  0.33120614  0.26905226  0.07356456     0.14300
H18         H  0.35981163  0.31675807  0.10961545     0.16900
C19         C  0.28427683  0.24010797  0.06997016    -0.30700
H20         H  0.27394394  0.21781926  0.05084182     0.16900
H21         H  0.16963028  0.11112576  0.13517837     0.16900
H22         H  0.17090245  0.38993130  0.15433116     0.17000
H23         H  0.25430835  0.20473560  0.19601828     0.16900
N24         N  0.06289513  0.50740188  0.12125178    -0.35800
N25         N  0.98301240  0.60312348  0.11715171    -0.56400
N26         N  0.89125475  0.52645265  0.12266413    -0.35800
N27         N  0.97143838  0.43067807  0.12157484    -0.56400
C28         C  0.09672841  0.54880464  0.11356183     0.27800
C29         C  0.09041891  0.45803912  0.11604102     0.27800
C30         C  0.86322541  0.57469561  0.11609549     0.27800
C31         C  0.85667135  0.48373887  0.11813298     0.27800
C32         C  0.03096490  0.62982260  0.12188175     0.36400
C33         C  0.94042801  0.64020742  0.12274188     0.36400
C34         C  0.01433806  0.39409485  0.12701198     0.36400
C35         C  0.92391645  0.40450411  0.12769802     0.36400
C36         C  0.14591713  0.52535018  0.10311394    -0.21100
C37         C  0.14194879  0.46840443  0.10465343    -0.21100
C38         C  0.81035491  0.56208059  0.10710744    -0.21100
C39         C  0.80619943  0.50512449  0.10850639    -0.21100
C40         C  0.01853464  0.68380878  0.13070030    -0.22200
C41         C  0.96159271  0.69034708  0.13122109    -0.22200
C42         C  0.99390800  0.34470692  0.13659592    -0.22200
C43         C  0.93698861  0.35129339  0.13711052    -0.22200
C44         C  0.08585188  0.60714502  0.11720444    -0.17500
C45         C  0.07165860  0.40390376  0.12253355    -0.17500
C46         C  0.86866263  0.42613977  0.12328606    -0.17500
C47         C  0.88274138  0.62997480  0.11957135    -0.17500
H48         H  0.18118697  0.54701734  0.09518696     0.15400
H49         H  0.17352880  0.43804902  0.09804859     0.15400
H50         H  0.77788957  0.59084992  0.10012527     0.15400
H51         H  0.77004007  0.48212444  0.10291764     0.15400
H52         H  0.04736015  0.71524455  0.13659334     0.13700
H53         H  0.93860545  0.72768966  0.13759716     0.13700
H54         H  0.01748797  0.30780856  0.14279431     0.13700
H55         H  0.90850365  0.32032733  0.14386708     0.13700
H56         H  0.02571466  0.51270854  0.13224628     0.26900
H57         H  0.92988936  0.52327897  0.13230206     0.26900
C58         C  0.76520499  0.81575034  0.10665662     0.30800
C59         C  0.70642092  0.74898540  0.14092783     0.30800
C60         C  0.79487711  0.75878839  0.11409502    -0.05400
C61         C  0.75051226  0.83949173  0.13636305    -0.06200
C62         C  0.70918998  0.79659454  0.09446611    -0.06100
C63         C  0.76403746  0.72558207  0.13187046    -0.05400
C64         C  0.71943265  0.80692291  0.15370919    -0.06200
C65         C  0.67872779  0.76424845  0.11224529    -0.06100
C66         C  0.79384457  0.67652938  0.13618224    -0.31500
N67         N  0.84191702  0.67667065  0.12107052     0.15000
C68         C  0.84286615  0.72684717  0.10744358    -0.31500
H69         H  0.87528370  0.73861515  0.09308240     0.17000
C70         C  0.71100057  0.83771561  0.17878187    -0.30400
N71         N  0.73954768  0.88537853  0.17778130     0.13800
C72         C  0.76378879  0.88660334  0.15175963    -0.30400
C73         C  0.63111515  0.75072571  0.09752260    -0.30700
N74         N  0.63236063  0.77159612  0.07092265     0.14300
H75         H  0.59775281  0.72635569  0.10526505     0.16900
C76         C  0.68073767  0.79902615  0.06870717    -0.30700
H77         H  0.69444377  0.81937440  0.04973566     0.16900
H78         H  0.78957475  0.91947607  0.14447757     0.16900
H79         H  0.78074840  0.64248990  0.14910385     0.17000
H80         H  0.68509105  0.82773842  0.19651548     0.16900
N81         N  0.22043133  0.91026543  0.24642114    -0.35800
N82         N  0.21159194  0.99695536  0.20109215    -0.56400
N83         N  0.21631075  0.08171322  0.24492399    -0.35800
N84         N  0.21379753  0.99539047  0.29001604    -0.56400
C85         C  0.20943403  0.87985694  0.22286273     0.27800
C86         C  0.20823132  0.87927640  0.26956127     0.27800
C87         C  0.20105940  0.11282048  0.22202898     0.27800
C88         C  0.20410685  0.11214680  0.26862663     0.27800
C89         C  0.22784749  0.95115517  0.18587212     0.36400
C90         C  0.22200314  0.04195083  0.18484757     0.36400
C91         C  0.22691391  0.95036435  0.30618683     0.36400
C92         C  0.22809596  0.04076825  0.30513857     0.36400
C93         C  0.18924560  0.82925403  0.23119200    -0.21100
C94         C  0.18856112  0.82890029  0.26045161    -0.21100
C95         C  0.17804039  0.16308342  0.23150440    -0.21100
C96         C  0.18020280  0.16277069  0.26069399    -0.21100
C97         C  0.24908657  0.96744325  0.16004617    -0.22200
C98         C  0.24504768  0.02454909  0.15934000    -0.22200
C99         C  0.24997292  0.96728478  0.33145978    -0.22200
C100        C  0.25102784  0.02424971  0.33074252    -0.22200
C101        C  0.22106310  0.89482986  0.19419015    -0.17500
C102        C  0.21744980  0.89423329  0.29857094    -0.17500
C103        C  0.21718223  0.09696707  0.29711438    -0.17500
C104        C  0.21091558  0.09847321  0.19289284    -0.17500
H105        H  0.17634190  0.79574581  0.21762866     0.15400
H106        H  0.17513185  0.79519862  0.27349455     0.15400
H107        H  0.16136090  0.19675533  0.21874404     0.15400
H108        H  0.16556758  0.19618613  0.27449050     0.15400
H109        H  0.26673410  0.94117177  0.14346453     0.13700
H110        H  0.25915206  0.05014335  0.14226470     0.13700
H111        H  0.26572363  0.94141266  0.34843562     0.13700
H112        H  0.26749858  0.05031533  0.34721168     0.13700
H113        H  0.24090561  0.94753355  0.24647826     0.26900
H114        H  0.23937616  0.04443360  0.24450803     0.26900
N115        N  0.74665665  0.03075372  0.20623783    -0.35800
N116        N  0.74054845  0.11643586  0.24865281    -0.56400
N117        N  0.75375124  0.03048425  0.29503998    -0.35800
N118        N  0.74770869  0.94426703  0.25239365    -0.56400
C119        C  0.73366011  0.07580078  0.18985669     0.27800
C120        C  0.73225123  0.98468838  0.19168258     0.27800
C121        C  0.73592997  0.07671719  0.30950321     0.27800
C122        C  0.74595206  0.98565849  0.31188632     0.27800
C123        C  0.75171059  0.14807932  0.22568813     0.36400
C124        C  0.75167104  0.14752029  0.27186457     0.36400
C125        C  0.75466226  0.91216653  0.22861675     0.36400
C126        C  0.76286302  0.91240844  0.27518566     0.36400
C127        C  0.71086469  0.05795057  0.16470729    -0.21100
C128        C  0.70968045  0.00088508  0.16589427    -0.21100
C129        C  0.71627187  0.06075161  0.33575983    -0.21100
C130        C  0.72311740  0.00377601  0.33734597    -0.21100
C131        C  0.77068525  0.19887074  0.23443922    -0.22200
C132        C  0.77084409  0.19847372  0.26353076    -0.22200
C133        C  0.77449519  0.85986985  0.23643649    -0.22200
C134        C  0.78020016  0.86018009  0.26550768    -0.22200
C135        C  0.74237115  0.13251963  0.19696375    -0.17500
C136        C  0.74204855  0.92821736  0.19993630    -0.17500
C137        C  0.75799176  0.92883311  0.30463680    -0.17500
C138        C  0.74011265  0.13304487  0.30040875    -0.17500
H139        H  0.69555013  0.08328565  0.14742993     0.15400
H140        H  0.69346034  0.97445650  0.14950772     0.15400
H141        H  0.69807807  0.08709964  0.35216197     0.15400
H142        H  0.71075143  0.97863294  0.35496672     0.15400
H143        H  0.78357940  0.23261837  0.22128379     0.13700
H144        H  0.78385204  0.23206930  0.27700838     0.13700
H145        H  0.78488987  0.82508309  0.22260375     0.13700
H146        H  0.79592673  0.82564464  0.27795150     0.13700
H147        H  0.76882025  0.03071938  0.22509708     0.26900
H148        H  0.77426261  0.03023613  0.27565069     0.26900
C149        C  0.20674602  0.78164260  0.39250185     0.30800
C150        C  0.27390892  0.72040056  0.35732012     0.30800
C151        C  0.18704715  0.72182056  0.38553256    -0.05400
C152        C  0.21587464  0.80698967  0.36269925    -0.06200
C153        C  0.26612103  0.76848597  0.40375686    -0.06100
C154        C  0.22062703  0.69066679  0.36689630    -0.05400
C155        C  0.24929419  0.77504562  0.34462173    -0.06200
C156        C  0.29984172  0.73848311  0.38560100    -0.06100
C157        C  0.19325560  0.64125879  0.36150968    -0.31500
N158        N  0.14533956  0.64071793  0.37709076     0.15000
C159        C  0.14305414  0.68867473  0.39255907    -0.31500
H160        H  0.11043304  0.69866999  0.40759980     0.17000
C161        C  0.24976836  0.80206143  0.31866319    -0.30400
N162        N  0.22024786  0.85117172  0.32055134     0.13800
C163        C  0.19868139  0.85399888  0.34744474    -0.30400
C164        C  0.34966296  0.72696831  0.39953829    -0.30700
N165        N  0.34734234  0.74903008  0.42601290     0.14300
H166        H  0.38480978  0.70297154  0.39127148     0.16900
C167        C  0.29585164  0.77320451  0.42905885    -0.30700
H168        H  0.28107520  0.79155958  0.44870629     0.16900
H169        H  0.17259447  0.88797392  0.35550591     0.16900
H170        H  0.20628040  0.60919518  0.34654600     0.17000
H171        H  0.27132790  0.78748839  0.29979055     0.16900
N172        N  0.07569423  0.50116527  0.37452226    -0.35800
N173        N  0.98123850  0.42445146  0.37689266    -0.56400
N174        N  0.90375149  0.52020568  0.37564774    -0.35800
N175        N  0.99757732  0.59648360  0.37883006    -0.56400
C176        C  0.10249727  0.45195801  0.38046948     0.27800
C177        C  0.11143177  0.54293962  0.37943303     0.27800
C178        C  0.86816875  0.47843919  0.38004635     0.27800
C179        C  0.87746160  0.56866518  0.38362966     0.27800
C180        C  0.02421287  0.38748311  0.37197968     0.36400
C181        C  0.93364844  0.39827936  0.37035586     0.36400
C182        C  0.04466277  0.62296064  0.37206423     0.36400
C183        C  0.95439496  0.63334149  0.37470221     0.36400
C184        C  0.15595716  0.46295791  0.38925478    -0.21100
C185        C  0.16158100  0.51988495  0.38848822    -0.21100
C186        C  0.81893846  0.50058094  0.39100055    -0.21100
C187        C  0.82491932  0.55713780  0.39349697    -0.21100
C188        C  0.00370676  0.33784809  0.36230544    -0.22200
C189        C  0.94676742  0.34468615  0.36119877    -0.22200
C190        C  0.03091743  0.67644890  0.36332767    -0.22200
C191        C  0.97414330  0.68307031  0.36514171    -0.22200
C192        C  0.08173702  0.39714171  0.37642987    -0.17500
C193        C  0.10017751  0.60118837  0.37550664    -0.17500
C194        C  0.89740122  0.62343638  0.38002055    -0.17500
C195        C  0.87833591  0.42099358  0.37382817    -0.17500
H196        H  0.18791594  0.43304435  0.39560990     0.15400
H197        H  0.19839326  0.54174472  0.39419341     0.15400
H198        H  0.78255508  0.47828147  0.39685655     0.15400
H199        H  0.79369959  0.58650760  0.40151612     0.15400
H200        H  0.02730827  0.30068134  0.35620659     0.13700
H201        H  0.91835960  0.31367549  0.35421243     0.13700
H202        H  0.05881786  0.70755963  0.35612557     0.13700
H203        H  0.95019166  0.72013816  0.35958060     0.13700
H204        H  0.03690440  0.50552844  0.36514535     0.26900
H205        H  0.94142550  0.51654355  0.36498989     0.26900
C206        C  0.69353743  0.32002812  0.35091218     0.30800
C207        C  0.74922838  0.25630511  0.38910286     0.30800
C208        C  0.75109557  0.34291927  0.36083115    -0.05400
C209        C  0.66281417  0.31223024  0.37996785    -0.06200
C210        C  0.70949925  0.26014106  0.34153381    -0.06100
C211        C  0.77931800  0.30966392  0.38072859    -0.05400
C212        C  0.69287986  0.28005736  0.39903150    -0.06200
C213        C  0.73852929  0.22898702  0.36056768    -0.06100
C214        C  0.82744212  0.33636663  0.38808012    -0.31500
N215        N  0.83139336  0.38370901  0.37283862     0.15000
C216        C  0.78439198  0.38879333  0.35666082    -0.31500
H217        H  0.77506170  0.42366411  0.34301368     0.17000
C218        C  0.66357061  0.27731855  0.42395161    -0.30400
N219        N  0.61451017  0.30553050  0.42129789     0.13800
C220        C  0.61357873  0.32772296  0.39451675    -0.30400
C221        C  0.75408590  0.17908932  0.34761759    -0.30700
N222        N  0.73267253  0.17788309  0.32111655     0.14300
H223        H  0.78021420  0.14649240  0.35670322     0.16900
C224        C  0.70508169  0.22756156  0.31725161    -0.30700
H225        H  0.68428111  0.23966322  0.29789065     0.16900
H226        H  0.57953226  0.35290528  0.38613730     0.16900
H227        H  0.85733771  0.32351803  0.40390525     0.17000
H228        H  0.67648709  0.25455506  0.44259914     0.16900
N229        N  0.57550366  0.76540628  0.49833177    -0.35800
N230        N  0.49324610  0.75015451  0.45429314    -0.56400
N231        N  0.40724265  0.74422201  0.49905821    -0.35800
N232        N  0.49122799  0.74363943  0.04157345    -0.56400
C233        C  0.60812957  0.75191154  0.47556642     0.27800
C234        C  0.60610121  0.75156625  0.02075148     0.27800
C235        C  0.37848800  0.73121701  0.47537254     0.27800
C236        C  0.37747843  0.72169908  0.02015649     0.27800
C237        C  0.53707590  0.76505032  0.43816360     0.36400
C238        C  0.44659757  0.76030866  0.43884256     0.36400
C239        C  0.53266743  0.76543909  0.05711326     0.36400
C240        C  0.44450950  0.74785193  0.05766767     0.36400
C241        C  0.65954238  0.73276288  0.48512629    -0.21100
C242        C  0.65803355  0.73099636  0.01261812    -0.21100
C243        C  0.33136712  0.70370152  0.48315035    -0.21100
C244        C  0.32924729  0.69804306  0.01064526    -0.21100
C245        C  0.51811727  0.78478796  0.41240498    -0.22200
C246        C  0.46110461  0.78221729  0.41289869    -0.22200
C247        C  0.51163763  0.78435966  0.08288625    -0.22200
C248        C  0.45628219  0.77256729  0.08338065    -0.22200
C249        C  0.59388996  0.76008593  0.44647162    -0.17500
C250        C  0.58985071  0.76414828  0.04916547    -0.17500
C251        C  0.39118861  0.73018043  0.04944232    -0.17500
C252        C  0.39155818  0.74705120  0.44713517    -0.17500
H253        H  0.69450402  0.71820091  0.47241861     0.15400
H254        H  0.69237793  0.71927395  0.02625072     0.15400
H255        H  0.29984454  0.68800573  0.46925912     0.15400
H256        H  0.29780371  0.67929481  0.02341232     0.15400
H257        H  0.54251295  0.80060627  0.39523481     0.13700
H258        H  0.43366415  0.79552744  0.39601633     0.13700
H259        H  0.53354507  0.80500215  0.09965878     0.13700
H260        H  0.42775554  0.78276104  0.10046058     0.13700
H261        H  0.53665947  0.78559338  0.49780768     0.26900
H262        H  0.44083342  0.77010516  0.49960508     0.26900
N263        N  0.55762367  0.29604603  0.49524612    -0.35800
N264        N  0.47086561  0.29418304  0.45153276    -0.56400
N265        N  0.38892140  0.27771584  0.49650257    -0.35800
N266        N  0.47361338  0.28959549  0.04308502    -0.56400
C267        C  0.58550986  0.31390537  0.47208257     0.27800
C268        C  0.58760072  0.30997297  0.02095601     0.27800
C269        C  0.35629973  0.28619210  0.47341921     0.27800
C270        C  0.35703117  0.28605250  0.02333561     0.27800
C271        C  0.51699875  0.28880318  0.43509372     0.36400
C272        C  0.42857590  0.27335581  0.43629601     0.36400
C273        C  0.52093561  0.27989023  0.05804309     0.36400
C274        C  0.43097438  0.27276550  0.05943675     0.36400
C275        C  0.63418922  0.33731399  0.48108972    -0.21100
C276        C  0.63548032  0.33561067  0.01271024    -0.21100
C277        C  0.30392602  0.30442062  0.48209815    -0.21100
C278        C  0.30392155  0.30274205  0.01507596    -0.21100
C279        C  0.50396959  0.26448834  0.40945092    -0.22200
C280        C  0.44835758  0.25417178  0.41031482    -0.22200
C281        C  0.50800512  0.25659679  0.08387986    -0.22200
C282        C  0.45133499  0.25236769  0.08479299    -0.22200
C283        C  0.57088960  0.30514768  0.44294463    -0.17500
C284        C  0.57542818  0.29381639  0.04934843    -0.17500
C285        C  0.37383214  0.27660323  0.05192396    -0.17500
C286        C  0.37187283  0.27462555  0.44487590    -0.17500
H287        H  0.66560712  0.35518681  0.46796386     0.15400
H288        H  0.66870215  0.34890701  0.02623794     0.15400
H289        H  0.26869540  0.31496038  0.46881952     0.15400
H290        H  0.26918291  0.31448187  0.02859270     0.15400
H291        H  0.53181572  0.25347115  0.39220343     0.13700
H292        H  0.42563890  0.23390588  0.39371616     0.13700
H293        H  0.53629343  0.24299593  0.10033895     0.13700
H294        H  0.42815638  0.23485373  0.10195446     0.13700
H295        H  0.52270681  0.27198862  0.49490298     0.26900
H296        H  0.42825003  0.25858889  0.49635726     0.26900
C297        C  0.77902872  0.80680468  0.39785485     0.30800
C298        C  0.72543877  0.74787645  0.35825248     0.30800
C299        C  0.80935955  0.75119911  0.38836539    -0.05400
C300        C  0.71995728  0.78838300  0.40589226    -0.06200
C301        C  0.76942489  0.83764666  0.36874602    -0.06100
C302        C  0.78050949  0.72089577  0.36863210    -0.05400
C303        C  0.69257829  0.75746774  0.38616692    -0.06200
C304        C  0.74135778  0.80629623  0.34925260    -0.06100
C305        C  0.80927353  0.67079799  0.36445087    -0.31500
N306        N  0.85690805  0.67009642  0.37960380     0.15000
C307        C  0.85790998  0.71949486  0.39404574    -0.31500
H308        H  0.89105768  0.73104422  0.40805643     0.17000
C309        C  0.64259103  0.74272297  0.39882478    -0.30400
N310        N  0.63852983  0.76545299  0.42545417     0.13800
C311        C  0.68584310  0.79364366  0.42958339    -0.30400
C312        C  0.73412327  0.83646193  0.32468324    -0.30700
N313        N  0.75853709  0.88611532  0.32712606     0.14300
H314        H  0.71163218  0.82294934  0.30624224     0.16900
C315        C  0.78030985  0.88735414  0.35420344    -0.30700
H316        H  0.80289653  0.92162214  0.36277100     0.16900
H317        H  0.69527860  0.81617314  0.44876532     0.16900
H318        H  0.79608348  0.63618407  0.35174953     0.17000
H319        H  0.61201195  0.71644415  0.38947146     0.16900
C320        C  0.75750901  0.24964863  0.10482218     0.30800
C321        C  0.69183053  0.31207874  0.14045086     0.30800
C322        C  0.78003342  0.30741720  0.11333320    -0.05400
C323        C  0.69948173  0.26713171  0.09306504    -0.06200
C324        C  0.74515386  0.22248337  0.13379624    -0.06100
C325        C  0.74748034  0.33880398  0.13233149    -0.05400
C326        C  0.66654783  0.29810098  0.11134244    -0.06200
C327        C  0.71207228  0.25451825  0.15204940    -0.06100
C328        C  0.77645520  0.38686426  0.13822325    -0.31500
N329        N  0.82376130  0.38675534  0.12228303     0.15000
C330        C  0.82473869  0.33955456  0.10636694    -0.31500
H331        H  0.85638154  0.32997170  0.09073506     0.17000
C332        C  0.61795413  0.31280385  0.09701296    -0.30400
N333        N  0.62002641  0.29143418  0.07031642     0.13800
C334        C  0.67027782  0.26452288  0.06751331    -0.30400
C335        C  0.70917886  0.22526050  0.17735056    -0.36300
N336        N  0.73789897  0.17560237  0.17497980     0.14300
H337        H  0.68792614  0.23938473  0.19638499     0.16900
C338        C  0.76042763  0.17399077  0.14832696    -0.30700
H339        H  0.78682431  0.14037703  0.14013818     0.16900
H340        H  0.68432207  0.24506038  0.04800263     0.16900
H341        H  0.76450073  0.41903012  0.15333858     0.17000
H342        H  0.58340497  0.33757434  0.10538882     0.16900
C343        C  0.25716708  0.27474918  0.35368750     0.30800
C344        C  0.19886116  0.21149395  0.38997907     0.30800
C345        C  0.20002974  0.30118227  0.36314771    -0.05400
C346        C  0.23979997  0.21830860  0.34210913    -0.06200
C347        C  0.28471591  0.26192019  0.38224251    -0.06100
C348        C  0.17007330  0.26918786  0.38240755    -0.05400
C349        C  0.21104665  0.18627365  0.36036804    -0.06200
C350        C  0.25603544  0.22976327  0.40076286    -0.06100
C351        C  0.12263728  0.30135099  0.38966999    -0.31500
N352        N  0.12192371  0.35003397  0.37482757     0.15000
C353        C  0.16769769  0.34880721  0.35804139    -0.31500
H354        H  0.17496000  0.38054865  0.34275476     0.17000
C355        C  0.19809811  0.13830737  0.34558451    -0.30400
N356        N  0.21915648  0.14030217  0.31884292     0.13800
C357        C  0.24440569  0.18963311  0.31656440    -0.30400
C358        C  0.28362239  0.23306533  0.42663472    -0.30700
N359        N  0.32903711  0.26480739  0.42376681     0.14300
H360        H  0.27094580  0.21453835  0.44628139     0.16900
C361        C  0.32825395  0.28432573  0.39688350    -0.30700
H362        H  0.35671738  0.31393618  0.38860498     0.16900
H363        H  0.26512839  0.20355784  0.29772075     0.16900
H364        H  0.09149954  0.29049550  0.40496137     0.17000
H365        H  0.17479868  0.10433620  0.35370057     0.16900
C366        C  0.26608774  0.71126098  0.14027056     0.30800
C367        C  0.21042262  0.77645210  0.10271336     0.30800
C368        C  0.21038539  0.68778820  0.12909469    -0.05400
C369        C  0.24909781  0.77022576  0.15058487    -0.06200
C370        C  0.29811831  0.72170735  0.11189054    -0.06100
C371        C  0.18163744  0.72150105  0.10978326    -0.05400
C372        C  0.22033993  0.80250337  0.13194082    -0.06200
C373        C  0.26805703  0.75439670  0.09291013    -0.06100
C374        C  0.13446888  0.69339381  0.10197293    -0.31500
N375        N  0.13234179  0.64481701  0.11653914     0.15000
C376        C  0.17956590  0.64031571  0.13232744    -0.31500
H377        H  0.19020585  0.60528608  0.14567454     0.17000
C378        C  0.20559181  0.85196103  0.14590024    -0.30400
N379        N  0.22636334  0.85095043  0.17267232     0.13800
C380        C  0.25348025  0.80093845  0.17554612    -0.30400
C381        C  0.29763115  0.75664992  0.06796137    -0.30700
N382        N  0.34699248  0.72896738  0.07080987     0.14300
H383        H  0.28447068  0.77809031  0.04896397     0.16900
C384        C  0.34767256  0.70664656  0.09755754    -0.30700
H385        H  0.38153964  0.68124269  0.10594842     0.16900
H386        H  0.27470740  0.78771870  0.19458440     0.16900
H387        H  0.10356143  0.70712445  0.08679673     0.17000
H388        H  0.18090706  0.88604429  0.13724637     0.16900
O389        O  0.10149182  0.13685483  0.98474431    -0.74500
O390        O  0.15736372  0.06473805  0.99571496    -0.53400
C391        C  0.14179005  0.11547383  0.99916497     0.79200
O392        O  0.90414460  0.03341169  0.08377040    -0.59100
O393        O  0.83951814  0.04877842  0.05098792    -0.52100
C394        C  0.85957001  0.02007655  0.07145826     0.71200
O395        O  0.07970519  0.00074026  0.07824934    -0.73700
O396        O  0.13922510  0.00006794  0.04132297    -0.54200
C397        C  0.12352772  0.98318871  0.06548335     0.77200
O398        O  0.91905935  0.19200260  0.00096036    -0.58800
O399        O  0.85384633  0.13193194  0.99187219    -0.51900
C400        C  0.87101096  0.17329562  0.00572519     0.73800
Zr401      Zr  0.00150223  0.13214895  0.99533599     2.54700
O402        O  0.02430798  0.20271558  0.03002009    -0.79400
O403        O  0.00294486  0.19687126  0.95605647    -0.92800
Zr404      Zr  0.99240878  0.03263470  0.05973016     2.64700
O405        O  0.01038398  0.12656975  0.07572639    -0.97800
O406        O  0.99350969  0.00832319  0.10969938    -0.79800
O407        O  0.05178494  0.07260907  0.02660552    -0.83200
O408        O  0.94246923  0.09329827  0.03022383    -2.17900
O409        O  0.88971061  0.04535070  0.42735785    -0.66600
O410        O  0.82247833  0.04531277  0.46099625    -0.51100
C411        C  0.84255843  0.06079447  0.43743523     0.72200
O412        O  0.03939333  0.85419312  0.49115160    -0.59500
O413        O  0.11268012  0.90217424  0.50517459    -0.51400
C414        C  0.09118481  0.86467106  0.48993117     0.74000
O415        O  0.85818310  0.89557017  0.51977941    -0.70900
O416        O  0.80339470  0.96700165  0.50706895    -0.49500
C417        C  0.81868421  0.91598668  0.50442279     0.75400
O418        O  0.06267602  0.99500695  0.42104204    -0.66200
O419        O  0.12919484  0.98849283  0.45442697    -0.53400
C420        C  0.11013763  0.00776311  0.43098404     0.73800
Zr421      Zr  0.97112523  0.99666834  0.44351123     2.77500
O422        O  0.95163721  0.90338626  0.42686429    -0.96900
O423        O  0.96668483  0.01058697  0.39253451    -0.77800
Zr424      Zr  0.95843537  0.90299637  0.51122848     2.70100
O425        O  0.93705684  0.81194543  0.49252658    -0.79000
O426        O  0.97435025  0.85154463  0.55482230    -0.98100
Zr427      Zr  0.08158665  0.99723675  0.49965301     2.21500
Zr428      Zr  0.87271460  0.03624641  0.50434397     2.11100
O429        O  0.91127793  0.95931160  0.47715224    -2.46800
O430        O  0.01727699  0.94006319  0.47605138    -0.78800
O431        O  0.93243592  0.07398180  0.46983014    -0.71000
O432        O  0.02316659  0.95742951  0.53486141    -2.32000
O433        O  0.03067451  0.05614327  0.46787334    -2.28200
O434        O  0.92951951  0.98367099  0.53244425    -0.72800
H435        H  0.92480359  0.11991273  0.04275657     0.79200
H436        H  0.04233500  0.93061367  0.54636010     0.80300
H437        H  0.88505925  0.93981686  0.46599478     0.82500
H438        H  0.05168315  0.07511883  0.45398476     0.80200
H439        H  0.01167401  0.03948784  0.11931433     0.43200
H440        H  0.94558123  0.82325269  0.55484795     0.42200
H441        H  0.94110641  0.81543358  0.47177141     0.41800
H442        H  0.93130188  0.90885015  0.40887572     0.39800
H443        H  0.96984850  0.05104630  0.38985869     0.42900
H444        H  0.00944668  0.17310572  0.93912718     0.37700
H445        H  0.01931771  0.23826615  0.01983577     0.43800
H446        H  0.98734921  0.13196948  0.09294144     0.40200
H447        H  0.98826986  0.88729843  0.42109814     0.45100
H448        H  0.03795199  0.21663226  0.95845594     0.43900
H449        H  0.04902321  0.12453773  0.08275232     0.44000
H450        H  0.00951863  0.83008445  0.55148073     0.44400
O451        O  0.45075336  0.40189212  0.28474823    -0.74500
O452        O  0.44047269  0.32878611  0.25988398    -0.53400
C453        C  0.43098953  0.35400374  0.28306889     0.79200
O454        O  0.34108447  0.63229573  0.26224509    -0.59100
O455        O  0.40676157  0.69170361  0.25620272    -0.52100
C456        C  0.35941961  0.67378772  0.24938622     0.71200
O457        O  0.29612226  0.46690481  0.23177331    -0.73700
O458        O  0.36464645  0.41503765  0.24689089    -0.54200
C459        C  0.32411171  0.42183758  0.23012723     0.77200
O460        O  0.49480227  0.56888695  0.33286732    -0.58800
O461        O  0.50831881  0.64309370  0.30737361    -0.51900
C462        C  0.48240440  0.61956737  0.32709405     0.73800
Zr463      Zr  0.45545595  0.49264800  0.30604889     2.54700
O464        O  0.37033999  0.48955259  0.33365375    -0.79400
O465        O  0.48946407  0.44346911  0.34774473    -0.92800
Zr466      Zr  0.35653762  0.53960823  0.24272091     2.64700
O467        O  0.26918543  0.53974874  0.26863597    -0.97800
O468        O  0.31082714  0.56248198  0.19837303    -0.79800
O469        O  0.40205186  0.46427783  0.26699811    -0.83200
O470        O  0.41134471  0.56804098  0.28162152    -2.17900
O471        O  0.62843853  0.58685070  0.26958545    -0.66600
O472        O  0.56906353  0.66028919  0.26156161    -0.51100
C473        C  0.61452577  0.63874473  0.27031055     0.72200
O474        O  0.46957124  0.46156110  0.15964042    -0.59500
O475        O  0.44954080  0.38902324  0.18541939    -0.51400
C476        C  0.48154647  0.41239306  0.16805168     0.74000
O477        O  0.48663896  0.64118899  0.18646433    -0.70900
O478        O  0.51444711  0.68578557  0.22498734    -0.49500
C479        C  0.52090031  0.67241497  0.19898741     0.75400
O480        O  0.60097508  0.41174604  0.23149732    -0.66200
O481        O  0.54138956  0.34678361  0.23932264    -0.53400
C482        C  0.58874590  0.36713305  0.24397191     0.73800
Zr483      Zr  0.58677185  0.50084204  0.25496522     2.77500
O484        O  0.68015942  0.50222195  0.23539110    -0.96900
O485        O  0.62861769  0.47261156  0.29961241    -0.77800
Zr486      Zr  0.48835321  0.54070537  0.18993054     2.70100
O487        O  0.58129120  0.54361763  0.16993177    -0.79000
O488        O  0.44895104  0.56291479  0.14377513    -0.98100
Zr489      Zr  0.46240514  0.41142748  0.23466217     2.21500
Zr490      Zr  0.48152517  0.62213796  0.25935977     2.11100
O491        O  0.54311297  0.57115279  0.22811818    -2.46800
O492        O  0.53369253  0.46803333  0.21596247    -0.78800
O493        O  0.52444315  0.54879654  0.28588914    -0.71000
O494        O  0.41701958  0.48773717  0.21028078    -2.32000
O495        O  0.51836243  0.44487425  0.27465833    -2.28200
O496        O  0.42622847  0.59179798  0.22063979    -0.72800
H497        H  0.38941993  0.58761178  0.29567766     0.79200
H498        H  0.39381202  0.47468884  0.19522318     0.80300
H499        H  0.57299493  0.59250166  0.22092802     0.82500
H500        H  0.53973111  0.41853348  0.28574534     0.80200
H501        H  0.34055596  0.56101925  0.18393459     0.43200
H502        H  0.41158676  0.57918420  0.14796092     0.42200
H503        H  0.60596331  0.52469944  0.18380814     0.41800
H504        H  0.68144872  0.53773622  0.22506225     0.39800
H505        H  0.61729177  0.50229529  0.31323390     0.42900
H506        H  0.51065203  0.47101065  0.35849630     0.37700
H507        H  0.34205894  0.50967551  0.32214533     0.43800
H508        H  0.27787341  0.55453014  0.28764992     0.40200
H509        H  0.70454495  0.50729036  0.25197306     0.45100
H510        H  0.51807611  0.41667726  0.34036070     0.43900
H511        H  0.24579667  0.56932044  0.25977286     0.44000
H512        H  0.47010063  0.59434700  0.13663913     0.44400
C513        C  0.22129866  0.86283796  0.07531551    -0.20500
C514        C  0.18500663  0.82157491  0.08478269    -0.08600
C515        C  0.12902912  0.83705995  0.08923678     0.30300
C516        C  0.11109333  0.89144729  0.08526923    -0.20500
C517        C  0.14742384  0.93117844  0.07536556    -0.08600
C518        C  0.20249564  0.91648423  0.06998325     0.30300
F519        F  0.23876784  0.95477713  0.06137468    -0.19100
H520        H  0.26570423  0.85644469  0.07507455     0.18700
H521        H  0.06796957  0.90218928  0.08970430     0.18700
F522        F  0.09298164  0.80243129  0.10118885    -0.19100
C523        C  0.28111918  0.67121206  0.21628295    -0.20500
C524        C  0.33547314  0.68609907  0.22151588    -0.08600
C525        C  0.36809695  0.70343265  0.19894375     0.30300
C526        C  0.34873925  0.69980003  0.17119590    -0.20500
C527        C  0.29405040  0.68427395  0.16547193    -0.08600
C528        C  0.26017152  0.67110586  0.18896072     0.30300
F529        F  0.20481054  0.66530588  0.18655896    -0.19100
H530        H  0.25429912  0.65995629  0.23356597     0.18700
H531        H  0.37418583  0.71633961  0.15464612     0.18700
F532        F  0.41705550  0.72733718  0.20378790    -0.19100
C533        C  0.34607737  0.26289956  0.32737774    -0.20500
C534        C  0.30039254  0.29893731  0.33461689    -0.08600
C535        C  0.30180192  0.35464433  0.32642323     0.30300
C536        C  0.34559881  0.37213599  0.31006687    -0.20500
C537        C  0.38948580  0.33552207  0.30254349    -0.08600
C538        C  0.38933380  0.28051686  0.31090540     0.30300
F539        F  0.43083247  0.24400934  0.30318517    -0.19100
H540        H  0.34832509  0.22036946  0.33464077     0.18700
H541        H  0.34418493  0.41417597  0.30251248     0.18700
F542        F  0.26408074  0.39345824  0.33520779    -0.19100
C543        C  0.20732687  0.12535061  0.41996889    -0.20500
C544        C  0.17217271  0.16638864  0.40715266    -0.08600
C545        C  0.11786888  0.15165113  0.40053182     0.30300
C546        C  0.10020876  0.09822580  0.40599161    -0.20500
C547        C  0.13500839  0.05827659  0.41940752    -0.08600
C548        C  0.18881126  0.07278456  0.42658480     0.30300
F549        F  0.22417150  0.03568487  0.43927257    -0.19100
H550        H  0.25088210  0.13166925  0.42313916     0.18700
H551        H  0.05807735  0.08889542  0.40048258     0.18700
F552        F  0.08343605  0.18690458  0.38614359    -0.19100
C553        C  0.76579161  0.18033213  0.06472428    -0.20500
C554        C  0.79231458  0.21400933  0.08450101    -0.08600
C555        C  0.84896528  0.22238812  0.08077860     0.30300
C556        C  0.87297130  0.21337738  0.05430158    -0.20500
C557        C  0.84253708  0.18932603  0.03226551    -0.08600
C558        C  0.78938687  0.17033742  0.03823004     0.30300
F559        F  0.75960902  0.14340646  0.01838639    -0.19100
H560        H  0.72444176  0.16623455  0.06874883     0.18700
H561        H  0.91617872  0.22273605  0.05151203     0.18700
F562        F  0.88120299  0.23771107  0.10279828    -0.19100
C563        C  0.60554462  0.31350169  0.16938469    -0.20500
C564        C  0.64750361  0.34462147  0.15690205    -0.08600
C565        C  0.63329548  0.39953920  0.14854857     0.30300
C566        C  0.57915505  0.42072405  0.15174949    -0.20500
C567        C  0.53818899  0.38908395  0.16410537    -0.08600
C568        C  0.55191345  0.33503963  0.17280540     0.30300
F569        F  0.51243342  0.30086223  0.18223178    -0.19100
H570        H  0.61122944  0.26970642  0.17317927     0.18700
H571        H  0.56842020  0.46061944  0.14270386     0.18700
F572        F  0.66836611  0.42962149  0.13293723    -0.19100
C573        C  0.72949078  0.69015125  0.31362120    -0.20500
C574        C  0.69771079  0.72007628  0.33413245    -0.08600
C575        C  0.64299758  0.73639191  0.32748141     0.30300
C576        C  0.61843360  0.71477664  0.30382280    -0.20500
C577        C  0.64743474  0.67546885  0.28689106    -0.08600
C578        C  0.70387188  0.66505824  0.29096905     0.30300
F579        F  0.73366996  0.63058784  0.27340048    -0.19100
H580        H  0.77406983  0.68666076  0.31450214     0.18700
H581        H  0.57521975  0.72594060  0.30010290     0.18700
F582        F  0.61383817  0.77492994  0.34303341    -0.19100
C583        C  0.78122064  0.89176745  0.42806611    -0.20500
C584        C  0.80084191  0.83683414  0.42359627    -0.08600
C585        C  0.81727394  0.80582071  0.44783829     0.30300
C586        C  0.81912037  0.83071586  0.47449253    -0.20500
C587        C  0.80217409  0.88609549  0.47838722    -0.08600
C588        C  0.77953971  0.91523537  0.45512886     0.30300
F589        F  0.75454092  0.96602211  0.45844706    -0.19100
H590        H  0.76191515  0.91506702  0.41105338     0.18700
H591        H  0.83273137  0.80607338  0.49238938     0.18700
F592        F  0.82546290  0.75000739  0.44690541    -0.19100
C593        C  0.82983750  0.20379581  0.40967779    -0.20500
C594        C  0.77251837  0.21167307  0.40777378    -0.08600
C595        C  0.73791630  0.16676687  0.41447798     0.30300
C596        C  0.76066988  0.11676984  0.42364788    -0.20500
C597        C  0.81775903  0.10953035  0.42478561    -0.08600
C598        C  0.85238647  0.15330386  0.41803347     0.30300
F599        F  0.90843085  0.14753477  0.41963122    -0.19100
H600        H  0.85793376  0.23415971  0.40235953     0.18700
H601        H  0.73393924  0.08304609  0.42878016     0.18700
F602        F  0.68286600  0.16814941  0.40848709    -0.19100
C603        C  0.69327168  0.36679106  0.30343452    -0.20500
C604        C  0.66239016  0.34511089  0.32595320    -0.08600
C605        C  0.60964858  0.32441228  0.31945587     0.30300
C606        C  0.58928777  0.32578868  0.29192159    -0.20500
C607        C  0.61853705  0.35126938  0.27020433    -0.08600
C608        C  0.67147130  0.37064759  0.27607816     0.30300
F609        F  0.70216043  0.39361271  0.25545895    -0.19100
H610        H  0.73573389  0.37796804  0.30631814     0.18700
H611        H  0.54878231  0.30938711  0.28801378     0.18700
F612        F  0.58008855  0.29676642  0.33888839    -0.19100
C613        C  0.19760491  0.85263405  0.43184129    -0.20500
C614        C  0.17162245  0.81725987  0.41263290    -0.08600
C615        C  0.11526633  0.80813463  0.41652257     0.30300
C616        C  0.09080850  0.81967587  0.44263246    -0.20500
C617        C  0.12097321  0.84511620  0.46441503    -0.08600
C618        C  0.17423389  0.86361673  0.45825940     0.30300
F619        F  0.20385747  0.89227869  0.47752100    -0.19100
H620        H  0.23836296  0.86781675  0.42740448     0.18700
H621        H  0.04759565  0.81023408  0.44532322     0.18700
F622        F  0.08353525  0.79010957  0.39489306    -0.19100
C623        C  0.33392446  0.63555402  0.35090899    -0.20500
C624        C  0.31957723  0.68952741  0.34138702    -0.08600
C625        C  0.36225532  0.72102200  0.32943691     0.30300
C626        C  0.41475633  0.69787734  0.32530804    -0.20500
C627        C  0.42856662  0.64478298  0.33517201    -0.08600
C628        C  0.38869848  0.61514983  0.34962235     0.30300
F629        F  0.40341624  0.56850910  0.36395722    -0.19100
H630        H  0.30490351  0.61245743  0.36320023     0.18700
H631        H  0.44573015  0.72315127  0.31561149     0.18700
F632        F  0.35730165  0.77670816  0.32607404    -0.19100
C633        C  0.58728758  0.66229941  0.15868288    -0.20500
C634        C  0.57361205  0.68553394  0.18523128    -0.08600
C635        C  0.61502288  0.71320225  0.20032215     0.30300
C636        C  0.66590182  0.72171352  0.18775344    -0.20500
C637        C  0.67346241  0.71020095  0.15906521    -0.08600
C638        C  0.63879975  0.67146638  0.14652628     0.30300
F639        F  0.65252811  0.64660982  0.12147597    -0.19100
H640        H  0.55832735  0.63727124  0.14727098     0.18700
H641        H  0.69814286  0.74025557  0.20000782     0.18700
F642        F  0.60631773  0.73436364  0.22665224    -0.19100
C643        C  0.84892573  0.86968479  0.09311384    -0.20500
C644        C  0.79194693  0.86156468  0.09006476    -0.08600
C645        C  0.75798168  0.90726722  0.08061985     0.30300
C646        C  0.78059043  0.95767734  0.07381243    -0.20500
C647        C  0.83674161  0.96583099  0.07791045    -0.08600
C648        C  0.87111255  0.92121549  0.08732466     0.30300
F649        F  0.92617414  0.92734866  0.09130586    -0.19100
H650        H  0.87579704  0.83765077  0.10208889     0.18700
H651        H  0.75335572  0.99163399  0.06695022     0.18700
F652        F  0.70188656  0.90643917  0.08115375    -0.19100
C653        C  0.31215729  0.29553113  0.18485820    -0.20500
C654        C  0.28306830  0.31882394  0.16191118    -0.08600
C655        C  0.28432774  0.37641741  0.15797924     0.30300
C656        C  0.29932024  0.41003414  0.18031556    -0.20500
C657        C  0.31683534  0.38612154  0.20584003    -0.08600
C658        C  0.32688479  0.32885523  0.20746779     0.30300
F659        F  0.34714746  0.30491736  0.23133468    -0.19100
H660        H  0.32334167  0.25197914  0.18555739     0.18700
H661        H  0.29570902  0.45465854  0.17793051     0.18700
F662        F  0.26833507  0.40023475  0.13323317    -0.19100
C663        C  0.19125701  0.14032626  0.07308084    -0.20500
C664        C  0.17080937  0.19486361  0.07812967    -0.08600
C665        C  0.15096805  0.22573460  0.05456985     0.30300
C666        C  0.14441464  0.20035260  0.02843614    -0.20500
C667        C  0.16102114  0.14500915  0.02432470    -0.08600
C668        C  0.18902343  0.11672555  0.04621070     0.30300
F669        F  0.21730808  0.06800442  0.04138100    -0.19100
H670        H  0.21457605  0.11787955  0.08908867     0.18700
H671        H  0.12709309  0.22451557  0.01114136     0.18700
F672        F  0.14413501  0.28169352  0.05538506    -0.19100
C673        C  0.19224962  0.23118343  0.59954661     0.30800
C674        C  0.24933190  0.29031015  0.63777525     0.30800
C675        C  0.16230646  0.28612391  0.60980480    -0.05400
C676        C  0.20411432  0.20065874  0.62826351    -0.06200
C677        C  0.25013347  0.24963427  0.59027661    -0.06100
C678        C  0.19179018  0.31580312  0.62956982    -0.05400
C679        C  0.23350270  0.23151609  0.64775676    -0.06200
C680        C  0.27874757  0.28021553  0.60942203    -0.06100
C681        C  0.15951555  0.36244785  0.63702206    -0.31500
N682        N  0.11179785  0.36357600  0.62177275     0.15000
C683        C  0.11234764  0.31622672  0.60565761    -0.31500
H684        H  0.07905940  0.30497216  0.59166865     0.17000
C685        C  0.23418820  0.20223782  0.67305863    -0.30400
N686        N  0.20832982  0.15338891  0.66988289     0.13800
C687        C  0.18854687  0.15276670  0.64259581    -0.30400
C688        C  0.32786745  0.29501130  0.59646030    -0.30700
N689        N  0.33017664  0.27291189  0.56978087     0.14300
H690        H  0.35902300  0.32084224  0.60565003     0.16900
C691        C  0.28279120  0.24454560  0.56613714    -0.30700
H692        H  0.27232966  0.22218615  0.54704884     0.16900
H693        H  0.16364810  0.12036488  0.63384078     0.16900
H694        H  0.17024169  0.39412951  0.65218712     0.17000
H695        H  0.25104386  0.21578247  0.69294711     0.16900
N696        N  0.06206358  0.51346263  0.62187358    -0.35800
N697        N  0.98149785  0.60776458  0.61864467    -0.56400
N698        N  0.88993964  0.52962853  0.62387400    -0.35800
N699        N  0.97036794  0.43545491  0.62170725    -0.56400
C700        C  0.09598703  0.55536215  0.61495962     0.27800
C701        C  0.08977309  0.46448295  0.61613776     0.27800
C702        C  0.86198870  0.57774380  0.61707115     0.27800
C703        C  0.85577053  0.48679736  0.61867775     0.27800
C704        C  0.02905563  0.63533160  0.62320166     0.36400
C705        C  0.93835855  0.64411044  0.62437001     0.36400
C706        C  0.01385645  0.39913510  0.62615401     0.36400
C707        C  0.92339484  0.40801455  0.62749498     0.36400
C708        C  0.14568754  0.53261418  0.60479594    -0.21100
C709        C  0.14173841  0.47564722  0.60545253    -0.21100
C710        C  0.80975330  0.56495561  0.60724698    -0.21100
C711        C  0.80579820  0.50798281  0.60837873    -0.21100
C712        C  0.01585578  0.68909866  0.63204431    -0.22200
C713        C  0.95883627  0.69460115  0.63282219    -0.22200
C714        C  0.99439620  0.34869852  0.63488246    -0.22200
C715        C  0.93744771  0.35431614  0.63581447    -0.22200
C716        C  0.08426488  0.61357299  0.61846961    -0.17500
C717        C  0.07083331  0.40982968  0.62134640    -0.17500
C718        C  0.86784799  0.42917102  0.62350804    -0.17500
C719        C  0.88079471  0.63310178  0.62106844    -0.17500
H720        H  0.18108702  0.55471444  0.59736444     0.15400
H721        H  0.17354235  0.44584106  0.59852144     0.15400
H722        H  0.77761559  0.59367870  0.59985672     0.15400
H723        H  0.77020488  0.48480714  0.60206006     0.15400
H724        H  0.04426003  0.72101505  0.63779938     0.13700
H725        H  0.93535645  0.73158838  0.63927009     0.13700
H726        H  0.01863553  0.31164517  0.64018008     0.13700
H727        H  0.90964121  0.32231132  0.64200988     0.13700
H728        H  0.02431086  0.51796664  0.63239645     0.26900
H729        H  0.92805826  0.52671318  0.63407511     0.26900
C730        C  0.76220562  0.81810835  0.60894941     0.30800
C731        C  0.70303301  0.75086488  0.64273973     0.30800
C732        C  0.79193695  0.76116173  0.61617850    -0.05400
C733        C  0.74730492  0.84143187  0.63858649    -0.06200
C734        C  0.70670288  0.79906641  0.59656078    -0.06100
C735        C  0.76092515  0.72743207  0.63369436    -0.05400
C736        C  0.71601897  0.80891069  0.65581744    -0.06200
C737        C  0.67589049  0.76649790  0.61398789    -0.06100
C738        C  0.79094831  0.67825234  0.63759876    -0.31500
N739        N  0.83928691  0.67918353  0.62266425     0.15000
C740        C  0.84002518  0.72964949  0.60936008    -0.31500
H741        H  0.87244268  0.74191600  0.59512358     0.17000
C742        C  0.70664524  0.84079060  0.68059203    -0.30400
N743        N  0.73449682  0.88898514  0.67927650     0.13800
C744        C  0.75942254  0.88939097  0.65349914    -0.30400
C745        C  0.62865103  0.75341715  0.59884222    -0.30700
N746        N  0.63079119  0.77517683  0.57243776     0.14300
H747        H  0.59492896  0.72895941  0.60613175     0.16900
C748        C  0.67901306  0.80271540  0.57074395    -0.30700
H749        H  0.69301026  0.82407935  0.55213245     0.16900
H750        H  0.78489856  0.92234839  0.64603153     0.16900
H751        H  0.77792592  0.64369162  0.65017457     0.17000
H752        H  0.68040598  0.83138256  0.69827610     0.16900
N753        N  0.21847750  0.92146769  0.74509220    -0.35800
N754        N  0.20648496  0.00814918  0.69993276    -0.56400
N755        N  0.21826017  0.09313189  0.74365455    -0.35800
N756        N  0.21904664  0.00617206  0.78864027    -0.56400
C757        C  0.20485091  0.89146393  0.72177365     0.27800
C758        C  0.20703966  0.89076066  0.76846959     0.27800
C759        C  0.20097396  0.12447488  0.72112161     0.27800
C760        C  0.20943261  0.12365910  0.76775755     0.27800
C761        C  0.22084045  0.96224138  0.68431859     0.36400
C762        C  0.21609062  0.05296240  0.68344043     0.36400
C763        C  0.23062105  0.96078416  0.80484083     0.36400
C764        C  0.23487777  0.05106485  0.80366916     0.36400
C765        C  0.18391118  0.84150016  0.73048695    -0.21100
C766        C  0.18519080  0.84112626  0.75972352    -0.21100
C767        C  0.18018013  0.17517097  0.73129948    -0.21100
C768        C  0.18576797  0.17476956  0.76045041    -0.21100
C769        C  0.24000475  0.97828006  0.65804819    -0.22200
C770        C  0.23670532  0.03527357  0.65744334    -0.22200
C771        C  0.25442349  0.97695904  0.83006282    -0.22200
C772        C  0.25747546  0.03382583  0.82925530    -0.22200
C773        C  0.21472354  0.90602724  0.69286844    -0.17500
C774        C  0.21851655  0.90513063  0.79735589    -0.17500
C775        C  0.22417215  0.10757341  0.79604905    -0.17500
C776        C  0.20678940  0.10962772  0.69162309    -0.17500
H777        H  0.16915015  0.80846835  0.71715742     0.15400
H778        H  0.17156780  0.80785729  0.77299358     0.15400
H779        H  0.16258114  0.20912320  0.71903274     0.15400
H780        H  0.17330759  0.20834616  0.77465602     0.15400
H781        H  0.25629789  0.95202444  0.64113588     0.13700
H782        H  0.25028374  0.06046412  0.64010755     0.13700
H783        H  0.26886624  0.95066292  0.84715841     0.13700
H784        H  0.27432418  0.05945783  0.84580843     0.13700
H785        H  0.24006286  0.95806553  0.74467773     0.26900
H786        H  0.24006034  0.05516837  0.74257801     0.26900
N787        N  0.74469027  0.03501385  0.70673793    -0.35800
N788        N  0.74264731  0.12206806  0.74895584    -0.56400
N789        N  0.75135688  0.03710085  0.79558579    -0.35800
N790        N  0.74211171  0.95004356  0.75326898    -0.56400
C791        C  0.73285160  0.08012890  0.69021571     0.27800
C792        C  0.72854581  0.98911175  0.69250234     0.27800
C793        C  0.73469473  0.08405676  0.80978740     0.27800
C794        C  0.74101997  0.99281556  0.81240909     0.27800
C795        C  0.75401465  0.15279330  0.72565861     0.36400
C796        C  0.75347855  0.15387123  0.77203242     0.36400
C797        C  0.74983748  0.91744456  0.72974314     0.36400
C798        C  0.75775400  0.91890591  0.77619368     0.36400
C799        C  0.70890640  0.06244082  0.66528174    -0.21100
C800        C  0.70602148  0.00544074  0.66674344    -0.21100
C801        C  0.71295192  0.06904375  0.83576699    -0.21100
C802        C  0.71749123  0.01192088  0.83750804    -0.21100
C803        C  0.77323408  0.20375113  0.73409449    -0.22200
C804        C  0.77290735  0.20445001  0.76327222    -0.22200
C805        C  0.77078649  0.86575533  0.73781180    -0.22200
C806        C  0.77637608  0.86686243  0.76685002    -0.22200
C807        C  0.74356920  0.13672844  0.69698063    -0.17500
C808        C  0.73704746  0.93259277  0.70106254    -0.17500
C809        C  0.75200553  0.93567900  0.80548368    -0.17500
C810        C  0.74151808  0.14009318  0.80075543    -0.17500
H811        H  0.69405956  0.08786224  0.64793657     0.15400
H812        H  0.68890020  0.97910351  0.65056453     0.15400
H813        H  0.69486469  0.09615911  0.85187845     0.15400
H814        H  0.70340069  0.98735005  0.85498982     0.15400
H815        H  0.78606582  0.23711992  0.72066466     0.13700
H816        H  0.78548683  0.23858020  0.77651088     0.13700
H817        H  0.78208880  0.83095355  0.72415469     0.13700
H818        H  0.79289501  0.83299765  0.77951523     0.13700
H819        H  0.76718585  0.03471490  0.72550010     0.26900
H820        H  0.77284311  0.03576957  0.77645791     0.26900
C821        C  0.20365083  0.79037850  0.89064153     0.30800
C822        C  0.26850481  0.72783200  0.85512910     0.30800
C823        C  0.18223824  0.73124417  0.88363400    -0.05400
C824        C  0.21354533  0.81614856  0.86097913    -0.06200
C825        C  0.26288352  0.77521314  0.90189744    -0.06100
C826        C  0.21451882  0.69965382  0.86471621    -0.05400
C827        C  0.24574199  0.78352865  0.84270367    -0.06200
C828        C  0.29543328  0.74424706  0.88353812    -0.06100
C829        C  0.18744041  0.64975405  0.86043700    -0.31500
N830        N  0.14129262  0.64904885  0.87720288     0.15000
C831        C  0.13940189  0.69775653  0.89208230    -0.31500
H832        H  0.10805644  0.70794893  0.90779996     0.17000
C833        C  0.24760846  0.81149156  0.81700435    -0.30400
N834        N  0.22024586  0.86177054  0.81926455     0.13800
C835        C  0.19867231  0.86455130  0.84616529    -0.30400
C836        C  0.34454013  0.72966342  0.89758054    -0.30700
N837        N  0.34340044  0.75106060  0.92428362     0.14300
H838        H  0.37833228  0.70392691  0.88915248     0.16900
C839        C  0.29289957  0.77783587  0.92732570    -0.30700
H840        H  0.27877017  0.79673846  0.94697011     0.16900
H841        H  0.17409289  0.89934462  0.85452486     0.16900
H842        H  0.19959275  0.61706638  0.84564991     0.17000
H843        H  0.26851175  0.79662301  0.79800301     0.16900
N844        N  0.07441877  0.50829644  0.87652042    -0.35800
N845        N  0.98142794  0.43044408  0.87966706    -0.56400
N846        N  0.90240124  0.52571312  0.87747236    -0.35800
N847        N  0.99467784  0.60291404  0.87973164    -0.56400
C848        C  0.10189247  0.45979794  0.88321027     0.27800
C849        C  0.10892241  0.55101314  0.88162198     0.27800
C850        C  0.86748016  0.48366321  0.88245178     0.27800
C851        C  0.87526531  0.57427211  0.88463660     0.27800
C852        C  0.02490036  0.39398473  0.87458085     0.36400
C853        C  0.93391201  0.40371558  0.87340965     0.36400
C854        C  0.04139414  0.62969090  0.87281689     0.36400
C855        C  0.95134783  0.63929650  0.87518807     0.36400
C856        C  0.15430781  0.47230931  0.89300587    -0.21100
C857        C  0.15882181  0.52938352  0.89178796    -0.21100
C858        C  0.81792563  0.50574322  0.89310222    -0.21100
C859        C  0.82289327  0.56259398  0.89460889    -0.21100
C860        C  0.00460168  0.34409685  0.86503447    -0.22200
C861        C  0.94754020  0.35018785  0.86435373    -0.22200
C862        C  0.02732453  0.68278492  0.86362241    -0.22200
C863        C  0.97062503  0.68896262  0.86531448    -0.22200
C864        C  0.08259722  0.40445421  0.87883807    -0.17500
C865        C  0.09687196  0.60882462  0.87668452    -0.17500
C866        C  0.89456894  0.62908107  0.88038758    -0.17500
C867        C  0.87823079  0.42609230  0.87664072    -0.17500
H868        H  0.18631342  0.44331076  0.90027958     0.15400
H869        H  0.19470727  0.55234312  0.89789138     0.15400
H870        H  0.78188084  0.48323123  0.89927663     0.15400
H871        H  0.79118999  0.59205102  0.90204423     0.15400
H872        H  0.02825609  0.30719999  0.85861736     0.13700
H873        H  0.91940370  0.31880506  0.85752125     0.13700
H874        H  0.05494027  0.71397086  0.85622793     0.13700
H875        H  0.94642435  0.72568128  0.85945167     0.13700
H876        H  0.03627933  0.51159965  0.86637064     0.26900
H877        H  0.94016028  0.52191413  0.86689570     0.26900
C878        C  0.69311818  0.32518436  0.85312995     0.30800
C879        C  0.74907597  0.26088839  0.89089231     0.30800
C880        C  0.75056650  0.34828003  0.86320574    -0.05400
C881        C  0.66236362  0.31648319  0.88219432    -0.06200
C882        C  0.70986593  0.26574848  0.84321499    -0.06100
C883        C  0.77876615  0.31474848  0.88295059    -0.05400
C884        C  0.69245763  0.28397745  0.90107386    -0.06200
C885        C  0.73866034  0.23405578  0.86210602    -0.06100
C886        C  0.82705314  0.34111359  0.89042870    -0.31500
N887        N  0.83129866  0.38863513  0.87534230     0.15000
C888        C  0.78428228  0.39392593  0.85908481    -0.31500
H889        H  0.77523710  0.42861735  0.84527300     0.17000
C890        C  0.66321433  0.28141009  0.92614172    -0.30400
N891        N  0.61400400  0.30961626  0.92363881     0.13800
C892        C  0.61323350  0.33213790  0.89693243    -0.30400
C893        C  0.75528075  0.18496861  0.84850591    -0.30700
N894        N  0.73512362  0.18497351  0.82165875     0.14300
H895        H  0.78097978  0.15190795  0.85747437     0.16900
C896        C  0.70724632  0.23461828  0.81827037    -0.30700
H897        H  0.68698015  0.24752490  0.79889858     0.16900
H898        H  0.57941472  0.35787838  0.88874487     0.16900
H899        H  0.85691115  0.32756467  0.90615990     0.17000
H900        H  0.67637864  0.25890498  0.94482545     0.16900
N901        N  0.57441369  0.76022054  0.99729181    -0.35800
N902        N  0.49023364  0.74655215  0.95276713    -0.56400
N903        N  0.40557657  0.74077661  0.99733157    -0.35800
N904        N  0.49046134  0.74916067  0.54305381    -0.56400
C905        C  0.60619573  0.74655010  0.97431062     0.27800
C906        C  0.60615367  0.75618553  0.52205990     0.27800
C907        C  0.37519497  0.73049421  0.97369437     0.27800
C908        C  0.37841121  0.72612153  0.52183553     0.27800
C909        C  0.53467067  0.76057708  0.93682585     0.36400
C910        C  0.44389431  0.75726584  0.93702733     0.36400
C911        C  0.53189311  0.77193559  0.55806420     0.36400
C912        C  0.44366791  0.75542945  0.55898108     0.36400
C913        C  0.65803010  0.72760720  0.98345101    -0.21100
C914        C  0.65835403  0.73562887  0.51431434    -0.21100
C915        C  0.32761731  0.70395038  0.98155645    -0.21100
C916        C  0.33145582  0.70028079  0.51232199    -0.21100
C917        C  0.51638136  0.77998309  0.91086475    -0.22200
C918        C  0.45933905  0.77817480  0.91102672    -0.22200
C919        C  0.51097342  0.79334839  0.58338584    -0.22200
C920        C  0.45537226  0.78244103  0.58407536    -0.22200
C921        C  0.59148279  0.75557309  0.94536521    -0.17500
C922        C  0.58904360  0.76884797  0.55036724    -0.17500
C923        C  0.39048587  0.73744179  0.55091319    -0.17500
C924        C  0.38809169  0.74659415  0.94538051    -0.17500
H925        H  0.69261902  0.71320066  0.97043535     0.15400
H926        H  0.69215235  0.72359691  0.52822666     0.15400
H927        H  0.29504940  0.69011002  0.96775684     0.15400
H928        H  0.29986399  0.68180699  0.52510647     0.15400
H929        H  0.54118343  0.79541416  0.89376265     0.13700
H930        H  0.43254822  0.79182462  0.89395471     0.13700
H931        H  0.53330818  0.81483835  0.59972658     0.13700
H932        H  0.42672737  0.79442612  0.60083630     0.13700
H933        H  0.53556436  0.78040360  0.99694134     0.26900
H934        H  0.44022090  0.76521157  0.99804321     0.26900
N935        N  0.55668505  0.29974188  0.99752777    -0.35800
N936        N  0.47011259  0.29713524  0.95433426    -0.56400
N937        N  0.38850325  0.27601078  0.99982276    -0.35800
N938        N  0.47390437  0.29042970  0.54032482    -0.56400
C939        C  0.58469841  0.31793208  0.97447123     0.27800
C940        C  0.58833474  0.30733522  0.51867507     0.27800
C941        C  0.35557569  0.28505747  0.97690768     0.27800
C942        C  0.35744366  0.28937031  0.51980614     0.27800
C943        C  0.51615417  0.29244801  0.93767465     0.36400
C944        C  0.42789052  0.27520541  0.93942693     0.36400
C945        C  0.52068753  0.27964351  0.55559170     0.36400
C946        C  0.43045385  0.27433931  0.55631403     0.36400
C947        C  0.63353794  0.34085308  0.98360022    -0.21100
C948        C  0.63607530  0.33297196  0.51024882    -0.21100
C949        C  0.30293538  0.30173433  0.98591501    -0.21100
C950        C  0.30475615  0.30691263  0.51125625    -0.21100
C951        C  0.50306723  0.26744793  0.91222464    -0.22200
C952        C  0.44760639  0.25610552  0.91342109    -0.22200
C953        C  0.50668326  0.25627664  0.58122650    -0.22200
C954        C  0.44982325  0.25317387  0.58172540    -0.22200
C955        C  0.57018750  0.30926353  0.94532835    -0.17500
C956        C  0.57558865  0.29286168  0.54730085    -0.17500
C957        C  0.37348370  0.27958588  0.54844299    -0.17500
C958        C  0.37112567  0.27562116  0.94816975    -0.17500
H959        H  0.66518539  0.35861690  0.97057998     0.15400
H960        H  0.66897591  0.34724012  0.52370358     0.15400
H961        H  0.26744025  0.31251109  0.97286933     0.15400
H962        H  0.27008437  0.31969877  0.52459943     0.15400
H963        H  0.53085728  0.25662948  0.89492208     0.13700
H964        H  0.42477134  0.23527553  0.89704920     0.13700
H965        H  0.53441758  0.24197841  0.59778740     0.13700
H966        H  0.42579948  0.23597982  0.59866626     0.13700
H967        H  0.52177344  0.27572351  0.99712138     0.26900
H968        H  0.42831363  0.25799473  0.99930541     0.26900
C969        C  0.77439433  0.81102196  0.89770724     0.30800
C970        C  0.72257042  0.75223125  0.85730318     0.30800
C971        C  0.80638157  0.75684148  0.88738708    -0.05400
C972        C  0.71628716  0.79003266  0.90551224    -0.06200
C973        C  0.76331999  0.84316650  0.86908102    -0.06100
C974        C  0.77852651  0.72659145  0.86720037    -0.05400
C975        C  0.69002012  0.75903391  0.88539898    -0.06200
C976        C  0.73613744  0.81184283  0.84918846    -0.06100
C977        C  0.80720996  0.67624779  0.86353755    -0.31500
N978        N  0.85399870  0.67556119  0.87934664     0.15000
C979        C  0.85449766  0.72506353  0.89370274    -0.31500
H980        H  0.88672713  0.73634110  0.90833010     0.17000
C981        C  0.64095344  0.74151673  0.89780674    -0.30400
N982        N  0.63611686  0.76290499  0.92465101     0.13800
C983        C  0.68221922  0.79275653  0.92922286    -0.30400
C984        C  0.72803036  0.84294069  0.82501675    -0.30700
N985        N  0.75137320  0.89306411  0.82798871     0.14300
H986        H  0.70634646  0.82940111  0.80632272     0.16900
C987        C  0.77293438  0.89382119  0.85510332    -0.30700
H988        H  0.79512233  0.92810653  0.86393589     0.16900
H989        H  0.69076756  0.81482544  0.94866796     0.16900
H990        H  0.79427264  0.64133170  0.85098250     0.17000
H991        H  0.61140163  0.71457038  0.88807983     0.16900
C992        C  0.75696616  0.25228178  0.60408933     0.30800
C993        C  0.69066809  0.31470121  0.63934913     0.30800
C994        C  0.77937000  0.31020807  0.61260280    -0.05400
C995        C  0.69910797  0.26943341  0.59207336    -0.06200
C996        C  0.74437403  0.22519948  0.63308999    -0.06100
C997        C  0.74633817  0.34152224  0.63139073    -0.05400
C998        C  0.66552246  0.30007734  0.61014121    -0.06200
C999        C  0.71118624  0.25734328  0.65126175    -0.06100
C1000       C  0.77503605  0.38963037  0.63760294    -0.31500
N1001       N  0.82301852  0.38956880  0.62216825     0.15000
C1002       C  0.82425896  0.34259630  0.60605664    -0.31500
H1003       H  0.85597512  0.33373255  0.59039581     0.17000
C1004       C  0.61665426  0.31321331  0.59548490    -0.30400
N1005       N  0.61961793  0.29160613  0.56875340     0.13800
C1006       C  0.67048213  0.26575591  0.56637886    -0.30400
C1007       C  0.70993891  0.22896159  0.67694056    -0.36300
N1008       N  0.73890996  0.17943563  0.67475399     0.14300
H1009       H  0.69006144  0.24367130  0.69622687     0.16900
C1010       C  0.76061091  0.17725726  0.64791563    -0.30700
H1011       H  0.78722419  0.14372630  0.63981363     0.16900
H1012       H  0.68535648  0.24594940  0.54710572     0.16900
H1013       H  0.76227831  0.42180936  0.65255818     0.17000
H1014       H  0.58139873  0.33718359  0.60368445     0.16900
C1015       C  0.25917419  0.28267227  0.85598578     0.30800
C1016       C  0.19860119  0.21740458  0.88992472     0.30800
C1017       C  0.20068269  0.30779436  0.86395968    -0.05400
C1018       C  0.24598954  0.22559612  0.84377063    -0.06200
C1019       C  0.28344873  0.27120418  0.88543215    -0.06100
C1020       C  0.16897532  0.27420071  0.88154989    -0.05400
C1021       C  0.21530549  0.19284679  0.86073255    -0.06200
C1022       C  0.25381389  0.23772116  0.90282036    -0.06100
C1023       C  0.12201180  0.30660712  0.88927743    -0.31500
N1024       N  0.12375575  0.35787127  0.87689095     0.15000
C1025       C  0.17219273  0.35874148  0.86202970    -0.31500
H1026       H  0.18655464  0.39532369  0.85170714     0.17000
C1027       C  0.20258452  0.14638411  0.84468465    -0.30400
N1028       N  0.22593739  0.14970387  0.81847265     0.13800
C1029       C  0.25250398  0.19858421  0.81775753    -0.30400
C1030       C  0.28186945  0.23715162  0.92873487    -0.30700
N1031       N  0.32800434  0.26833443  0.92686520     0.14300
H1032       H  0.26939447  0.21595207  0.94767568     0.16900
C1033       C  0.32763666  0.29081326  0.90064798    -0.30700
H1034       H  0.35743490  0.31984041  0.89311481     0.16900
H1035       H  0.27441018  0.21384270  0.79956282     0.16900
H1036       H  0.08992743  0.29437152  0.90372769     0.17000
H1037       H  0.17730645  0.11275095  0.85147772     0.16900
C1038       C  0.26235087  0.72210010  0.64029672     0.30800
C1039       C  0.20581027  0.78428408  0.60183400     0.30800
C1040       C  0.20782262  0.69656703  0.62900665    -0.05400
C1041       C  0.24369922  0.78079239  0.65003850    -0.06200
C1042       C  0.29485364  0.73268264  0.61222372    -0.06100
C1043       C  0.17862469  0.72879779  0.60937023    -0.05400
C1044       C  0.21472814  0.81198743  0.63094972    -0.06200
C1045       C  0.26466706  0.76372794  0.59253001    -0.06100
C1046       C  0.13146002  0.70005951  0.60221233    -0.31500
N1047       N  0.13011140  0.65204523  0.61731538     0.15000
C1048       C  0.17761934  0.64886442  0.63294630    -0.31500
H1049       H  0.18872017  0.61474193  0.64679991     0.17000
C1050       C  0.19923195  0.86170547  0.64463328    -0.30400
N1051       N  0.21973263  0.86166665  0.67153409     0.13800
C1052       C  0.24737312  0.81208106  0.67478685    -0.30400
C1053       C  0.29543490  0.76416471  0.56778356    -0.30700
N1054       N  0.34540224  0.73805607  0.57181369     0.14300
H1055       H  0.28239614  0.78194586  0.54784348     0.16900
C1056       C  0.34529875  0.71771788  0.59887700    -0.30700
H1057       H  0.37904287  0.69323808  0.60803043     0.16900
H1058       H  0.26877271  0.79956999  0.69391003     0.16900
H1059       H  0.09980120  0.71346654  0.58734751     0.17000
H1060       H  0.17440180  0.89535525  0.63568783     0.16900
O1061       O  0.09388940  0.13833756  0.48303932    -0.74500
O1062       O  0.14975583  0.06627286  0.49430668    -0.53400
C1063       C  0.13434730  0.11720216  0.49738486     0.79200
O1064       O  0.89526059  0.03952796  0.58371934    -0.59100
O1065       O  0.83057157  0.04909769  0.55041088    -0.52100
C1066       C  0.85139124  0.02337452  0.57168744     0.71200
O1067       O  0.06996803  0.00545647  0.58210820    -0.73700
O1068       O  0.12497590  0.01375155  0.54480916    -0.54200
C1069       C  0.11227222  0.98985413  0.56772132     0.77200
O1070       O  0.91065223  0.19060701  0.49828805    -0.58800
O1071       O  0.84538408  0.12960828  0.49102099    -0.51900
C1072       C  0.86301355  0.17186656  0.50395919     0.73800
Zr1073     Zr  0.99449193  0.13237873  0.49405741     2.54700
O1074       O  0.01794146  0.21294246  0.52231589    -0.79400
O1075       O  0.99288012  0.19222050  0.45272256    -0.92800
Zr1076     Zr  0.98478348  0.03587583  0.56080794     2.64700
O1077       O  0.00741433  0.12894504  0.57613712    -0.97800
O1078       O  0.97979312  0.01310770  0.61090374    -0.79800
O1079       O  0.04378907  0.07453006  0.52674399    -0.83200
O1080       O  0.93575273  0.09389888  0.52942603    -2.17900
O1081       O  0.89491230  0.05265998  0.92821050    -0.66600
O1082       O  0.82789135  0.05077240  0.96186490    -0.51100
C1083       C  0.84780787  0.06731004  0.93847726     0.72200
O1084       O  0.04466082  0.84603981  0.99430708    -0.59500
O1085       O  0.11340845  0.90096911  0.00597868    -0.51400
C1086       C  0.09351647  0.86362327  0.99020940     0.74000
O1087       O  0.86376731  0.89555739  0.01856455    -0.70900
O1088       O  0.80990218  0.96888250  0.00722113    -0.49500
C1089       C  0.82359550  0.91754608  0.00417295     0.75400
O1090       O  0.06540253  0.99678364  0.91954304    -0.66200
O1091       O  0.13310410  0.99051294  0.95203980    -0.53400
C1092       C  0.11260425  0.01079807  0.92913155     0.73800
Zr1093     Zr  0.97515047  0.00156869  0.94307187     2.77500
O1094       O  0.94809729  0.91163508  0.92480517    -0.96900
O1095       O  0.97367810  0.01870150  0.89228223    -0.77800
Zr1096     Zr  0.96306147  0.90256978  0.00785907     2.70100
O1097       O  0.93729569  0.82876272  0.97563112    -0.79000
O1098       O  0.97024488  0.84027971  0.04815274    -0.98100
Zr1099     Zr  0.08767730  0.99680633  0.99793190     2.21500
Zr1100     Zr  0.87953649  0.03765435  0.00437219     2.11100
O1101       O  0.91479161  0.96189460  0.97558630    -2.46800
O1102       O  0.02301216  0.94121225  0.97332654    -0.78800
O1103       O  0.94443195  0.06963806  0.97423753    -0.71000
O1104       O  0.02873247  0.95562048  0.03241118    -2.32000
O1105       O  0.03703407  0.05863225  0.96737290    -2.28200
O1106       O  0.93592361  0.98207368  0.03110359    -0.72800
H1107       H  0.91791236  0.12123945  0.54151259     0.79200
H1108       H  0.04770873  0.92868792  0.04403008     0.80300
H1109       H  0.88703200  0.94403533  0.96461773     0.82500
H1110       H  0.05744326  0.07857751  0.95373618     0.80200
H1111       H  0.99014940  0.04726455  0.62107970     0.43200
H1112       H  0.95183485  0.80628562  0.04182713     0.42200
H1113       H  0.94369487  0.79412160  0.98643395     0.41800
H1114       H  0.91703838  0.92039250  0.91173021     0.39800
H1115       H  0.96896498  0.05939077  0.89013638     0.42900
H1116       H  0.03105442  0.18982771  0.44503024     0.37700
H1117       H  0.00457006  0.20555121  0.54161848     0.43800
H1118       H  0.98963478  0.13393061  0.59490408     0.40200
H1119       H  0.97915281  0.89927080  0.91230405     0.45100
H1120       H  0.98885795  0.23037627  0.46054204     0.43900
H1121       H  0.04768125  0.12659399  0.58017142     0.44000
H1122       H  0.01006369  0.82910139  0.04918532     0.44400
O1123       O  0.44579468  0.40311366  0.78049593    -0.74500
O1124       O  0.43175518  0.33039871  0.75615215    -0.53400
C1125       C  0.42357808  0.35659458  0.77915418     0.79200
O1126       O  0.33885361  0.63371197  0.75989401    -0.59100
O1127       O  0.40450477  0.69361721  0.75551636    -0.52100
C1128       C  0.35720001  0.67654326  0.74827303     0.71200
O1129       O  0.29044580  0.47154201  0.72676051    -0.73700
O1130       O  0.36162796  0.42507884  0.74193195    -0.54200
C1131       C  0.32070406  0.42811788  0.72518139     0.77200
O1132       O  0.48214053  0.56711102  0.83237936    -0.58800
O1133       O  0.50100204  0.63967853  0.80650433    -0.51900
C1134       C  0.47214993  0.61771856  0.82567032     0.73800
Zr1135     Zr  0.44828042  0.49230947  0.80285823     2.54700
O1136       O  0.36034276  0.48374835  0.82751306    -0.79400
O1137       O  0.48102865  0.44125145  0.84417010    -0.92800
Zr1138     Zr  0.35281220  0.54237413  0.73846558     2.64700
O1139       O  0.26401016  0.55295114  0.76306757    -0.97800
O1140       O  0.31396345  0.57109337  0.69320344    -0.79800
O1141       O  0.39629266  0.46548973  0.76305463    -0.83200
O1142       O  0.40588687  0.56826563  0.77841637    -2.17900
O1143       O  0.62444611  0.58862920  0.76878427    -0.66600
O1144       O  0.56401426  0.66186582  0.76203870    -0.51100
C1145       C  0.60993375  0.64042706  0.77028139     0.72200
O1146       O  0.46650797  0.46204323  0.65789844    -0.59500
O1147       O  0.44764325  0.38830092  0.68275043    -0.51400
C1148       C  0.47991417  0.41309086  0.66617051     0.74000
O1149       O  0.47982190  0.64224412  0.68472550    -0.70900
O1150       O  0.50598994  0.68782198  0.72315542    -0.49500
C1151       C  0.51312690  0.67444105  0.69721403     0.75400
O1152       O  0.59947719  0.41112566  0.73286674    -0.66200
O1153       O  0.53752262  0.34905425  0.74231575    -0.53400
C1154       C  0.58579094  0.36814031  0.74630640     0.73800
Zr1155     Zr  0.58292843  0.50263523  0.75332881     2.77500
O1156       O  0.67352915  0.50305992  0.73058433    -0.96900
O1157       O  0.62946207  0.47733911  0.79718532    -0.77800
Zr1158     Zr  0.48779415  0.54188906  0.68742797     2.70100
O1159       O  0.58224329  0.54368690  0.66921759    -0.79000
O1160       O  0.45949860  0.56229367  0.63898359    -0.98100
Zr1161     Zr  0.45914177  0.41247445  0.73170361     2.21500
Zr1162     Zr  0.47732391  0.62252357  0.75759793     2.11100
O1163       O  0.54054285  0.57337625  0.72630453    -2.46800
O1164       O  0.53157860  0.46897345  0.71389116    -0.78800
O1165       O  0.51891753  0.54872266  0.78417596    -0.71000
O1166       O  0.41514499  0.48960432  0.70695390    -2.32000
O1167       O  0.51335531  0.44664366  0.77223005    -2.28200
O1168       O  0.42446265  0.59355769  0.71767238    -0.72800
H1169       H  0.38366672  0.58657101  0.79276025     0.79200
H1170       H  0.39247356  0.47697634  0.69159728     0.80300
H1171       H  0.57009232  0.59577532  0.71959312     0.82500
H1172       H  0.53410711  0.42122821  0.78412661     0.80200
H1173       H  0.34555064  0.57016471  0.67980299     0.43200
H1174       H  0.44448252  0.60102167  0.63912824     0.42200
H1175       H  0.60539051  0.52298316  0.68309648     0.41800
H1176       H  0.67569036  0.54051072  0.72228703     0.39800
H1177       H  0.60357873  0.49007038  0.81234498     0.42900
H1178       H  0.52135697  0.44745256  0.84472247     0.37700
H1179       H  0.33226074  0.49992978  0.81443896     0.43800
H1180       H  0.23527828  0.55398358  0.74812919     0.40200
H1181       H  0.70033112  0.50301685  0.74641284     0.45100
H1182       H  0.47843554  0.40169441  0.83867951     0.43900
H1183       H  0.25897795  0.51764277  0.77317785     0.44000
H1184       H  0.49456084  0.56355392  0.62814861     0.44400
C1185       C  0.20885922  0.86574438  0.56944898    -0.20500
C1186       C  0.17642440  0.82641564  0.58345051    -0.08600
C1187       C  0.12155049  0.84211654  0.59082305     0.30300
C1188       C  0.10263751  0.89625113  0.58695637    -0.20500
C1189       C  0.13591802  0.93495225  0.57364512    -0.08600
C1190       C  0.18809410  0.91854691  0.56358393     0.30300
F1191       F  0.22089229  0.95484330  0.55027008    -0.19100
H1192       H  0.25260748  0.85977022  0.56604303     0.18700
H1193       H  0.06145068  0.90785136  0.59458542     0.18700
F1194       F  0.08956788  0.80910310  0.60659865    -0.19100
C1195       C  0.27824681  0.67810409  0.71587130    -0.20500
C1196       C  0.33260115  0.69270305  0.72121751    -0.08600
C1197       C  0.36453360  0.71341275  0.69919121     0.30300
C1198       C  0.34476425  0.71245064  0.67151753    -0.20500
C1199       C  0.29043449  0.69612508  0.66559005    -0.08600
C1200       C  0.25667352  0.68143429  0.68881863     0.30300
F1201       F  0.20099806  0.67783496  0.68665656    -0.19100
H1202       H  0.25182957  0.66479980  0.73291387     0.18700
H1203       H  0.36963936  0.73111638  0.65537128     0.18700
F1204       F  0.41317767  0.73763097  0.70452929    -0.19100
C1205       C  0.35476017  0.28128325  0.83652733    -0.20500
C1206       C  0.30143752  0.30800645  0.83717614    -0.08600
C1207       C  0.28863415  0.34877342  0.81713109     0.30300
C1208       C  0.32991354  0.36631804  0.79921556    -0.20500
C1209       C  0.38287040  0.34046559  0.79946700    -0.08600
C1210       C  0.39509723  0.29736190  0.81787025     0.30300
F1211       F  0.44546262  0.27042408  0.81748513    -0.19100
H1212       H  0.36467856  0.24615137  0.84996790     0.18700
H1213       H  0.31914244  0.39860119  0.78444597     0.18700
F1214       F  0.23603361  0.36727475  0.81234488    -0.19100
C1215       C  0.20653535  0.13097064  0.91917238    -0.20500
C1216       C  0.17127207  0.17144287  0.90611743    -0.08600
C1217       C  0.11763350  0.15562659  0.89866846     0.30300
C1218       C  0.10056763  0.10186621  0.90423524    -0.20500
C1219       C  0.13575024  0.06260290  0.91799774    -0.08600
C1220       C  0.18882593  0.07828803  0.92567898     0.30300
F1221       F  0.22456177  0.04212568  0.93874017    -0.19100
H1222       H  0.24995465  0.13755715  0.92246539     0.18700
H1223       H  0.05893776  0.09154916  0.89835097     0.18700
F1224       F  0.08353852  0.19007393  0.88356413    -0.19100
C1225       C  0.76384600  0.17970163  0.56560717    -0.20500
C1226       C  0.79110985  0.21613439  0.58378081    -0.08600
C1227       C  0.84661889  0.22654352  0.57811563     0.30300
C1228       C  0.86761729  0.21695015  0.55111482    -0.20500
C1229       C  0.83618484  0.18934461  0.53066729    -0.08600
C1230       C  0.78491066  0.16831210  0.53868350     0.30300
F1231       F  0.75457809  0.13787738  0.52048960    -0.19100
H1232       H  0.72327891  0.16508714  0.57102545     0.18700
H1233       H  0.90972023  0.22824650  0.54682498     0.18700
F1234       F  0.88128071  0.24242916  0.59899453    -0.19100
C1235       C  0.60719697  0.31904329  0.67080671    -0.20500
C1236       C  0.64688403  0.34834913  0.65562016    -0.08600
C1237       C  0.63125761  0.40191899  0.64576469     0.30300
C1238       C  0.57706220  0.42278569  0.64937590    -0.20500
C1239       C  0.53772050  0.39212927  0.66366465    -0.08600
C1240       C  0.55380453  0.34048610  0.67498503     0.30300
F1241       F  0.51674792  0.30787589  0.68789279    -0.19100
H1242       H  0.61387216  0.27626840  0.67643903     0.18700
H1243       H  0.56493622  0.46134301  0.63921160     0.18700
F1244       F  0.66475796  0.43005698  0.62832191    -0.19100
C1245       C  0.72615813  0.69405227  0.81258418    -0.20500
C1246       C  0.69489739  0.72451566  0.83307490    -0.08600
C1247       C  0.63968188  0.73975153  0.82695572     0.30300
C1248       C  0.61413492  0.71643106  0.80400831    -0.20500
C1249       C  0.64299840  0.67723930  0.78691664    -0.08600
C1250       C  0.69985914  0.66808689  0.79032470     0.30300
F1251       F  0.72947378  0.63414296  0.77243242    -0.19100
H1252       H  0.77077414  0.69067572  0.81325645     0.18700
H1253       H  0.57045084  0.72638196  0.80094319     0.18700
F1254       F  0.61067059  0.77825221  0.84262094    -0.19100
C1255       C  0.77728097  0.89525155  0.92895798    -0.20500
C1256       C  0.79573657  0.84014566  0.92389330    -0.08600
C1257       C  0.81277925  0.80824405  0.94772737     0.30300
C1258       C  0.81772973  0.83263213  0.97436207    -0.20500
C1259       C  0.80335578  0.88853148  0.97865024    -0.08600
C1260       C  0.77922301  0.91860306  0.95604344     0.30300
F1261       F  0.75702581  0.97049997  0.95996914    -0.19100
H1262       H  0.75728923  0.91925939  0.91240472     0.18700
H1263       H  0.83306232  0.80752569  0.99177310     0.18700
F1264       F  0.81940889  0.75230291  0.94640545    -0.19100
C1265       C  0.83151699  0.20802706  0.90851034    -0.20500
C1266       C  0.77407280  0.21663939  0.90917044    -0.08600
C1267       C  0.74037840  0.17198769  0.91725352     0.30300
C1268       C  0.76424119  0.12248011  0.92642766    -0.20500
C1269       C  0.82140504  0.11496532  0.92558760    -0.08600
C1270       C  0.85506354  0.15779121  0.91644970     0.30300
F1271       F  0.91115931  0.15153465  0.91537171    -0.19100
H1272       H  0.85853563  0.23761328  0.89937041     0.18700
H1273       H  0.73814432  0.08924893  0.93306382     0.18700
F1274       F  0.68482195  0.17289673  0.91275336    -0.19100
C1275       C  0.69183316  0.37001178  0.80525464    -0.20500
C1276       C  0.66125847  0.35019102  0.82835594    -0.08600
C1277       C  0.60798046  0.32991062  0.82252475     0.30300
C1278       C  0.58643610  0.33078091  0.79521546    -0.20500
C1279       C  0.61585982  0.35345591  0.77273820    -0.08600
C1280       C  0.66960512  0.37165139  0.77787717     0.30300
F1281       F  0.70065492  0.39136533  0.75648000    -0.19100
H1282       H  0.73458437  0.38074716  0.80779920     0.18700
H1283       H  0.54529210  0.31537958  0.79193957     0.18700
F1284       F  0.57894127  0.30275375  0.84233708    -0.19100
C1285       C  0.19535852  0.86137827  0.92970953    -0.20500
C1286       C  0.16884578  0.82649259  0.91055640    -0.08600
C1287       C  0.11213483  0.81826005  0.91436008     0.30300
C1288       C  0.08812821  0.82909536  0.94067327    -0.20500
C1289       C  0.11951990  0.85228144  0.96258102    -0.08600
C1290       C  0.17217501  0.87207091  0.95616542     0.30300
F1291       F  0.20188907  0.90056813  0.97543916    -0.19100
H1292       H  0.23655194  0.87557193  0.92537276     0.18700
H1293       H  0.04507190  0.81942383  0.94378630     0.18700
F1294       F  0.08031210  0.79959158  0.89289588    -0.19100
C1295       C  0.32316301  0.64018203  0.84751045    -0.20500
C1296       C  0.31218337  0.69525375  0.83877145    -0.08600
C1297       C  0.35648208  0.72455437  0.82694792     0.30300
C1298       C  0.40796158  0.69884660  0.82303954    -0.20500
C1299       C  0.41869144  0.64495593  0.83263981    -0.08600
C1300       C  0.37640746  0.61650917  0.84594632     0.30300
F1301       F  0.38696744  0.56716082  0.85869493    -0.19100
H1302       H  0.29307902  0.61800567  0.85949183     0.18700
H1303       H  0.44060139  0.72263955  0.81379626     0.18700
F1304       F  0.35411678  0.78029214  0.82351012    -0.19100
C1305       C  0.58283887  0.66335449  0.65822087    -0.20500
C1306       C  0.56617632  0.68811057  0.68400942    -0.08600
C1307       C  0.60528636  0.71791521  0.69955033     0.30300
C1308       C  0.65761815  0.72540436  0.68851344    -0.20500
C1309       C  0.66874991  0.71215075  0.66032914    -0.08600
C1310       C  0.63547310  0.67268473  0.64722320     0.30300
F1311       F  0.65149268  0.64764598  0.62254748    -0.19100
H1312       H  0.55530562  0.63718275  0.64653736     0.18700
H1313       H  0.68838280  0.74431921  0.70153820     0.18700
F1314       F  0.59303359  0.74155512  0.72502603    -0.19100
C1315       C  0.84443515  0.87296070  0.59381863    -0.20500
C1316       C  0.78728230  0.86487775  0.59254508    -0.08600
C1317       C  0.75186088  0.91093056  0.58495922     0.30300
C1318       C  0.77325207  0.96155666  0.57776844    -0.20500
C1319       C  0.82982347  0.96948037  0.57961649    -0.08600
C1320       C  0.86553423  0.92486383  0.58773543     0.30300
F1321       F  0.92087124  0.93127094  0.58993948    -0.19100
H1322       H  0.87246075  0.84057928  0.60151436     0.18700
H1323       H  0.74506289  0.99574611  0.57225992     0.18700
F1324       F  0.69597160  0.90991633  0.58787059    -0.19100
C1325       C  0.31239841  0.30204229  0.67976656    -0.20500
C1326       C  0.28268254  0.32526310  0.65708772    -0.08600
C1327       C  0.28348719  0.38282828  0.65300693     0.30300
C1328       C  0.29865804  0.41647387  0.67521628    -0.20500
C1329       C  0.31610245  0.39253905  0.70073978    -0.08600
C1330       C  0.32647496  0.33535059  0.70240950     0.30300
F1331       F  0.34483980  0.31121412  0.72652870    -0.19100
H1332       H  0.32308705  0.25832529  0.68056446     0.18700
H1333       H  0.29432461  0.46109850  0.67292775     0.18700
F1334       F  0.26585178  0.40660375  0.62852296    -0.19100
C1335       C  0.18793374  0.14541566  0.57022535    -0.20500
C1336       C  0.16812626  0.20027849  0.57488847    -0.08600
C1337       C  0.14737104  0.23026552  0.55123611     0.30300
C1338       C  0.13899745  0.20366710  0.52552993    -0.20500
C1339       C  0.15491771  0.14795848  0.52188662    -0.08600
C1340       C  0.18399539  0.12056689  0.54369130     0.30300
F1341       F  0.21092274  0.07098954  0.53913093    -0.19100
H1342       H  0.21148431  0.12342811  0.58632762     0.18700
H1343       H  0.12108893  0.22717934  0.50815850     0.18700
F1344       F  0.14081626  0.28627556  0.55156536    -0.19100
loop_ 
_geom_bond_atom_site_label_1 
_geom_bond_atom_site_label_2 
_geom_bond_distance 
_geom_bond_site_symmetry_2 
_ccdc_geom_bond_type 
C1            C3   1.560       .  S
C1            C5   1.542       .  S
C1            C4   1.565       .  S
C1          C664   1.506       .  S
C2            C6   1.559       .  S
C2            C8   1.535       .  S
C2            C7   1.565       .  S
C2          C654   1.501       .  S
C3           C11   1.401       .  A
C3            C6   1.386       .  A
C4           C15   1.404       .  A
C4            C7   1.391       .  A
C5           C19   1.386       .  A
C5            C8   1.367       .  A
C6            C9   1.395       .  A
C7           C13   1.395       .  A
C8           C16   1.395       .  A
C9           N10   1.363       .  A
C9           H22   1.082       .  S
N10          C11   1.366       .  A
N10          C45   1.470       .  S
C11          H12   1.082       .  S
C13          N14   1.361       .  A
C13          H23   1.078       .  S
N14          C15   1.372       .  A
N14         C104   1.477       .  S
C15          H21   1.082       .  S
C16          N17   1.368       .  A
C16          H18   1.082       .  S
N17          C19   1.361       .  A
N17         C285   1.467       .  S
C19          H20   1.082       .  S
N24          C29   1.363       .  A
N24          C28   1.363       .  A
N24          H56   1.040       .  S
N25          C32   1.362   1_655  A
N25          C33   1.363       .  A
N26          C31   1.364       .  A
N26          C30   1.363       .  A
N26          H57   1.039       .  S
N27          C34   1.363   1_655  A
N27          C35   1.360       .  A
C28          C36   1.386       .  A
C28          C44   1.431       .  A
C29          C45   1.431       .  A
C29          C37   1.386       .  A
C30          C38   1.389       .  A
C30          C47   1.437       .  A
C31          C46   1.431       .  A
C31          C39   1.385       .  A
C32          C44   1.432       .  A
C32          C40   1.386       .  A
C33          C47   1.430       .  A
C33          C41   1.385       .  A
C34          C42   1.384   1_455  A
C34          C45   1.427       .  A
C35          C43   1.387       .  A
C35          C46   1.431       .  A
C36          C37   1.382       .  A
C36          H48   1.082       .  S
C37          H49   1.082       .  S
C38          C39   1.382       .  A
C38          H50   1.082       .  S
C39          H51   1.082       .  S
C40          C41   1.378   1_455  A
C40          H52   1.082       .  S
C41          H53   1.082       .  S
C42          C43   1.378       .  A
C42          H54   1.082   1_655  S
C43          H55   1.082       .  S
C44         N375   1.468       .  S
C46         N329   1.466       .  S
C47          N67   1.471       .  S
C58          C60   1.569       .  S
C58          C62   1.554       .  S
C58          C61   1.548       .  S
C58         C644   1.521       .  S
C59          C63   1.541       .  S
C59          C65   1.554       .  S
C59          C64   1.560       .  S
C59         C637   1.518       .  S
C60          C68   1.402       .  A
C60          C63   1.397       .  A
C61          C72   1.391       .  A
C61          C64   1.379       .  A
C62          C76   1.400       .  A
C62          C65   1.380       .  A
C63          C66   1.379       .  A
C64          C70   1.405       .  A
C65          C73   1.392       .  A
C66          N67   1.362       .  A
C66          H79   1.082       .  S
N67          C68   1.376       .  A
C68          H69   1.082       .  S
C70          N71   1.361       .  A
C70          H80   1.079       .  S
N71          C72   1.362       .  A
N71         C136   1.468       .  S
C72          H78   1.082       .  S
C73          N74   1.359       .  A
C73          H75   1.078       .  S
N74          C76   1.366       .  A
N74         C250   1.468       .  S
C76          H77   1.082       .  S
N81          C86   1.367       .  A
N81          C85   1.360       .  A
N81         H113   1.040       .  S
N82          C89   1.359       .  A
N82          C90   1.364   1_565  A
N83          C88   1.361       .  A
N83          C87   1.365       .  A
N83         H114   1.041       .  S
N84          C91   1.361       .  A
N84          C92   1.357   1_565  A
C85          C93   1.389       .  A
C85         C101   1.435       .  A
C86         C102   1.435       .  A
C86          C94   1.385       .  A
C87          C95   1.386       .  A
C87         C104   1.435       .  A
C88         C103   1.431       .  A
C88          C96   1.386       .  A
C89         C101   1.431       .  A
C89          C97   1.388       .  A
C90         C104   1.428       .  A
C90          C98   1.383       .  A
C91          C99   1.383       .  A
C91         C102   1.424       .  A
C92         C100   1.387       .  A
C92         C103   1.426       .  A
C93          C94   1.383       .  A
C93         H105   1.082       .  S
C94         H106   1.082       .  S
C95          C96   1.381       .  A
C95         H107   1.082       .  S
C96         H108   1.082       .  S
C97          C98   1.377   1_565  A
C97         H109   1.081       .  S
C98         H110   1.081       .  S
C99         C100   1.375   1_565  A
C99         H111   1.082       .  S
C100        H112   1.082       .  S
C101        N379   1.464       .  S
C102        N162   1.474       .  S
C103        N356   1.461       .  S
N115        C120   1.358   1_545  A
N115        C119   1.367       .  A
N115        H147   1.040       .  S
N116        C123   1.364       .  A
N116        C124   1.356       .  A
N117        C122   1.365   1_545  A
N117        C121   1.360       .  A
N117        H148   1.041       .  S
N118        C125   1.367       .  A
N118        C126   1.371       .  A
C119        C127   1.383       .  A
C119        C135   1.428       .  A
C120        C136   1.431       .  A
C120        C128   1.389   1_565  A
C121        C129   1.390       .  A
C121        C138   1.434       .  A
C122        C137   1.429       .  A
C122        C130   1.384   1_565  A
C123        C135   1.426       .  A
C123        C131   1.383       .  A
C124        C138   1.426       .  A
C124        C132   1.387       .  A
C125        C133   1.386       .  A
C125        C136   1.443       .  A
C126        C134   1.387       .  A
C126        C137   1.448       .  A
C127        C128   1.379       .  A
C127        H139   1.082       .  S
C128        H140   1.082   1_545  S
C129        C130   1.380       .  A
C129        H141   1.081       .  S
C130        H142   1.082   1_545  S
C131        C132   1.375       .  A
C131        H143   1.082       .  S
C132        H144   1.082       .  S
C133        C134   1.381       .  A
C133        H145   1.082       .  S
C134        H146   1.082       .  S
C135        N336   1.476       .  S
C137        N313   1.486       .  S
C138        N222   1.459       .  S
C149        C151   1.567       .  S
C149        C153   1.553       .  S
C149        C152   1.558       .  S
C149        C614   1.515       .  S
C150        C154   1.562       .  S
C150        C156   1.543       .  S
C150        C155   1.552       .  S
C150        C624   1.506       .  S
C151        C159   1.392       .  A
C151        C154   1.394       .  A
C152        C163   1.399       .  A
C152        C155   1.385       .  A
C153        C167   1.402       .  A
C153        C156   1.367       .  A
C154        C157   1.404       .  A
C155        C161   1.394       .  A
C156        C164   1.393       .  A
C157        N158   1.371       .  A
C157        H170   1.082       .  S
N158        C159   1.363       .  A
N158        C193   1.474       .  S
C159        H160   1.080       .  S
C161        N162   1.363       .  A
C161        H171   1.082       .  S
N162        C163   1.373       .  A
C163        H169   1.082       .  S
C164        N165   1.356       .  A
C164        H166   1.081       .  S
N165        C167   1.361       .  A
N165        C252   1.463       .  S
C167        H168   1.080       .  S
N172        C177   1.367       .  A
N172        C176   1.363       .  A
N172        H204   1.039       .  S
N173        C180   1.362   1_655  A
N173        C181   1.364       .  A
N174        C179   1.360       .  A
N174        C178   1.363       .  A
N174        H205   1.040       .  S
N175        C182   1.361   1_655  A
N175        C183   1.361       .  A
C176        C184   1.390       .  A
C176        C192   1.441       .  A
C177        C193   1.435       .  A
C177        C185   1.384       .  A
C178        C186   1.384       .  A
C178        C195   1.426       .  A
C179        C194   1.432       .  A
C179        C187   1.388       .  A
C180        C192   1.431       .  A
C180        C188   1.385       .  A
C181        C195   1.434       .  A
C181        C189   1.385       .  A
C182        C190   1.387       .  A
C182        C193   1.432       .  A
C183        C191   1.384       .  A
C183        C194   1.427       .  A
C184        C185   1.384       .  A
C184        H196   1.082       .  S
C185        H197   1.082       .  S
C186        C187   1.380       .  A
C186        H198   1.082       .  S
C187        H199   1.082       .  S
C188        C189   1.380   1_455  A
C188        H200   1.082       .  S
C189        H201   1.082       .  S
C190        C191   1.377   1_455  A
C190        H202   1.082       .  S
C191        H203   1.082       .  S
C192        N352   1.469       .  S
C194        N306   1.465       .  S
C195        N215   1.471       .  S
C206        C208   1.583       .  S
C206        C210   1.543       .  S
C206        C209   1.576       .  S
C206        C604   1.518       .  S
C207        C211   1.553       .  S
C207        C213   1.523       .  S
C207        C212   1.529       .  S
C207        C594   1.492       .  S
C208        C216   1.404       .  A
C208        C211   1.403       .  A
C209        C220   1.410       .  A
C209        C212   1.384       .  A
C210        C224   1.392       .  A
C210        C213   1.357       .  A
C211        C214   1.391       .  A
C212        C218   1.376       .  A
C213        C221   1.385       .  A
C214        N215   1.360       .  A
C214        H227   1.080       .  S
N215        C216   1.372       .  A
C216        H217   1.081       .  S
C218        N219   1.351       .  A
C218        H228   1.083       .  S
N219        C220   1.378       .  A
N219        C283   1.467       .  S
C220        H226   1.082       .  S
C221        N222   1.357       .  A
C221        H223   1.082       .  S
N222        C224   1.364       .  A
C224        H225   1.082       .  S
N229        C233   1.363       .  A
N229        C906   1.360       .  A
N229        H261   1.042       .  S
N230        C237   1.363       .  A
N230        C238   1.359       .  A
N231        C235   1.359       .  A
N231        C908   1.364       .  A
N231        H262   1.040       .  S
N232        C239   1.360       .  A
N232        C240   1.360       .  A
C233        C241   1.387       .  A
C233        C249   1.432       .  A
C234        C250   1.426       .  A
C234        C242   1.385       .  A
C234        N901   1.362   1_554  A
C235        C243   1.387       .  A
C235        C252   1.429       .  A
C236        C251   1.439       .  A
C236        C244   1.388       .  A
C236        N903   1.365   1_554  A
C237        C249   1.428       .  A
C237        C245   1.384       .  A
C238        C252   1.432       .  A
C238        C246   1.388       .  A
C239        C247   1.387       .  A
C239        C250   1.429       .  A
C240        C248   1.384       .  A
C240        C251   1.423       .  A
C241        C914   1.381       .  A
C241        H253   1.082       .  S
C242        C913   1.381   1_554  A
C242        H254   1.082       .  S
C243        C916   1.382       .  A
C243        H255   1.082       .  S
C244        C915   1.384   1_554  A
C244        H256   1.082       .  S
C245        C246   1.380       .  A
C245        H257   1.082       .  S
C246        H258   1.081       .  S
C247        C248   1.376       .  A
C247        H259   1.081       .  S
C248        H260   1.082       .  S
C249        N310   1.474       .  S
C251        N382   1.469       .  S
N263        C267   1.365       .  A
N263        C940   1.365       .  A
N263        H295   1.040       .  S
N264        C271   1.359       .  A
N264        C272   1.358       .  A
N265        C269   1.359       .  A
N265        C942   1.359       .  A
N265        H296   1.041       .  S
N266        C273   1.359       .  A
N266        C274   1.361       .  A
C267        C275   1.387       .  A
C267        C283   1.438       .  A
C268        C284   1.433       .  A
C268        C276   1.386       .  A
C268        N935   1.362   1_554  A
C269        C277   1.384       .  A
C269        C286   1.423       .  A
C270        C285   1.429       .  A
C270        C278   1.388       .  A
C270        N937   1.361   1_554  A
C271        C283   1.421       .  A
C271        C279   1.384       .  A
C272        C286   1.426       .  A
C272        C280   1.387       .  A
C273        C281   1.388       .  A
C273        C284   1.429       .  A
C274        C282   1.384       .  A
C274        C285   1.425       .  A
C275        C948   1.384       .  A
C275        H287   1.082       .  S
C276        C947   1.384   1_554  A
C276        H288   1.082       .  S
C277        C950   1.380       .  A
C277        H289   1.082       .  S
C278        C949   1.379   1_554  A
C278        H290   1.082       .  S
C279        C280   1.374       .  A
C279        H291   1.082       .  S
C280        H292   1.081       .  S
C281        C282   1.376       .  A
C281        H293   1.081       .  S
C282        H294   1.082       .  S
C284        N333   1.464       .  S
C286        N359   1.462       .  S
C297        C299   1.567       .  S
C297        C301   1.583       .  S
C297        C300   1.555       .  S
C297        C584   1.516       .  S
C298        C302   1.542       .  S
C298        C304   1.536       .  S
C298        C303   1.550       .  S
C298        C574   1.490       .  S
C299        C307   1.404       .  A
C299        C302   1.384       .  A
C300        C311   1.391       .  A
C300        C303   1.374       .  A
C301        C315   1.418       .  A
C301        C304   1.381       .  A
C302        C305   1.385       .  A
C303        C309   1.404       .  A
C304        C312   1.383       .  A
C305        N306   1.355       .  A
C305        H318   1.081       .  S
N306        C307   1.369       .  A
C307        H308   1.082       .  S
C309        N310   1.371       .  A
C309        H319   1.082       .  S
N310        C311   1.363       .  A
C311        H317   1.082       .  S
C312        N313   1.357       .  A
C312        H314   1.082       .  S
N313        C315   1.385       .  A
C315        H316   1.082       .  S
C320        C322   1.563       .  S
C320        C324   1.556       .  S
C320        C323   1.554       .  S
C320        C554   1.517       .  S
C321        C325   1.558       .  S
C321        C327   1.559       .  S
C321        C326   1.546       .  S
C321        C564   1.515       .  S
C322        C330   1.391       .  A
C322        C325   1.394       .  A
C323        C334   1.402       .  A
C323        C326   1.372       .  A
C324        C338   1.399       .  A
C324        C327   1.387       .  A
C325        C328   1.400       .  A
C326        C332   1.392       .  A
C327        C335   1.396       .  A
C328        N329   1.367       .  A
C328        H341   1.082       .  S
N329        C330   1.359       .  A
C330        H331   1.080       .  S
C332        N333   1.360       .  A
C332        H342   1.081       .  S
N333        C334   1.361       .  A
C334        H340   1.080       .  S
C335        N336   1.366       .  A
C335        H337   1.082       .  S
N336        C338   1.371       .  A
C338        H339   1.082       .  S
C343        C345   1.562       .  S
C343        C347   1.535       .  S
C343        C346   1.535       .  S
C343        C534   1.513       .  S
C344        C348   1.577       .  S
C344        C350   1.549       .  S
C344        C349   1.546       .  S
C344        C544   1.522       .  S
C345        C353   1.389       .  A
C345        C348   1.412       .  A
C346        C357   1.389       .  A
C346        C349   1.367       .  A
C347        C361   1.382       .  A
C347        C350   1.376       .  A
C348        C351   1.401       .  A
C349        C355   1.392       .  A
C350        C358   1.397       .  A
C351        N352   1.372       .  A
C351        H364   1.082       .  S
N352        C353   1.359       .  A
C353        H354   1.075       .  S
C355        N356   1.364       .  A
C355        H365   1.082       .  S
N356        C357   1.360       .  A
C357        H363   1.082       .  S
C358        N359   1.366       .  A
C358        H360   1.082       .  S
N359        C361   1.359       .  A
C361        H362   1.083       .  S
C366        C368   1.568       .  S
C366        C370   1.574       .  S
C366        C369   1.541       .  S
C366        C527   1.511       .  S
C367        C371   1.555       .  S
C367        C373   1.541       .  S
C367        C372   1.536       .  S
C367        C514   1.499       .  S
C368        C376   1.396       .  A
C368        C371   1.396       .  A
C369        C380   1.394       .  A
C369        C372   1.356       .  A
C370        C384   1.409       .  A
C370        C373   1.388       .  A
C371        C374   1.394       .  A
C372        C378   1.393       .  A
C373        C381   1.380       .  A
C374        N375   1.366       .  A
C374        H387   1.081       .  S
N375        C376   1.365       .  A
C376        H377   1.082       .  S
C378        N379   1.362       .  A
C378        H388   1.081       .  S
N379        C380   1.360       .  A
C380        H386   1.081       .  S
C381        N382   1.353       .  A
C381        H383   1.082       .  S
N382        C384   1.378       .  A
C384        H385   1.082       .  S
O389       Zr401   2.471       .  S
O389        C391   1.284       .  A
O390      Zr1099   2.391   1_545  S
O390        C391   1.276       .  A
C391        C667   1.466   1_556  S
O392       Zr404   2.412       .  S
O392        C394   1.274       .  A
O393      Zr1100   2.414       .  S
O393        C394   1.280       .  A
C394        C647   1.470   1_545  S
O395       Zr404   2.388   1_455  S
O395        C397   1.275   1_545  A
O396      Zr1099   2.403   1_544  S
O396        C397   1.277   1_545  A
C397        C517   1.443       .  S
O398       Zr401   2.430   1_654  S
O398        C400   1.279       .  A
O399      Zr1100   2.413   1_556  S
O399        C400   1.271   1_556  A
C400        C557   1.472       .  S
Zr401       O402   2.431   1_556  S
Zr401       O403   2.436       .  S
Zr401       O407   2.374   1_556  S
Zr401       O408   2.395   1_456  S
Zr401      O1105   2.341       .  S
Zr401      O1103   2.300   1_455  S
O402        H445   0.990       .  S
O403        H444   0.990       .  S
O403        H448   0.991       .  S
Zr404       O405   2.435   1_655  S
Zr404       O406   2.438       .  S
Zr404       O408   2.335       .  S
Zr404       O407   2.355   1_655  S
Zr404      O1104   2.394   1_645  S
Zr404      O1106   2.296   1_545  S
O405        H446   0.990   1_455  S
O405        H449   0.990       .  S
O406        H439   0.991   1_655  S
O407      Zr1099   2.403   1_544  S
O408      Zr1100   2.392       .  S
O408        H435   0.959       .  S
O409       Zr421   2.383   1_545  S
O409        C411   1.276       .  A
O410       Zr428   2.390       .  S
O410        C411   1.278       .  A
C411        C597   1.435       .  S
O412       Zr424   2.433   1_455  S
O412        C414   1.285       .  A
O413       Zr427   2.403       .  S
O413        C414   1.277       .  A
C414        C617   1.469       .  S
O415       Zr424   2.465       .  S
O415        C417   1.286       .  A
O416       Zr428   2.408   1_565  S
O416        C417   1.277       .  A
C417        C587   1.484       .  S
O418       Zr421   2.449   1_455  S
O418        C420   1.285   1_565  A
O419       Zr427   2.430       .  S
O419        C420   1.285   1_565  A
C420        C547   1.484       .  S
Zr421       O422   2.438       .  S
Zr421       O423   2.438   1_565  S
Zr421       O429   2.352       .  S
Zr421       O430   2.324   1_655  S
Zr421       O433   2.360   1_665  S
Zr421       O431   2.395   1_565  S
O422        H442   0.990       .  S
O422        H447   0.990       .  S
O423        H443   0.990       .  S
Zr424       O425   2.432       .  S
Zr424       O426   2.438       .  S
Zr424       O430   2.384   1_655  S
Zr424       O429   2.380       .  S
Zr424       O432   2.353   1_655  S
Zr424       O434   2.269       .  S
O425        H441   0.990       .  S
O426        H440   0.990       .  S
O426        H450   0.990   1_655  S
Zr427      O1062   2.395   1_565  S
Zr427      O1068   2.416   1_565  S
Zr427       O430   2.384       .  S
Zr427       O432   2.406       .  S
Zr427       O433   2.388   1_565  S
Zr427      O1079   2.405   1_565  S
Zr428      O1065   2.415       .  S
Zr428      O1071   2.412       .  S
Zr428       O429   2.408   1_545  S
Zr428       O431   2.382       .  S
Zr428      O1080   2.404       .  S
Zr428       O434   2.272   1_545  S
O429        H437   0.958       .  S
O431      Zr1073   2.380       .  S
O432      Zr1076   2.404   1_465  S
O432        H436   0.956       .  S
O433      Zr1073   2.350   1_455  S
O433        H438   0.958       .  S
O434      Zr1076   2.293   1_565  S
O451       Zr463   2.408       .  S
O451        C453   1.266       .  A
O452       Zr489   2.404       .  S
O452        C453   1.266       .  A
C453        C537   1.444       .  S
O454       Zr466   2.428       .  S
O454        C456   1.267       .  A
O455       Zr490   2.426       .  S
O455        C456   1.276       .  A
C456        C524   1.468       .  S
O457       Zr466   2.373       .  S
O457        C459   1.261       .  A
O458       Zr489   2.427       .  S
O458        C459   1.267       .  A
C459        C657   1.444       .  S
O460       Zr463   2.445       .  S
O460        C462   1.279       .  A
O461       Zr490   2.416       .  S
O461        C462   1.270       .  A
C462        C627   1.464       .  S
Zr463       O464   2.436       .  S
Zr463       O465   2.437       .  S
Zr463       O469   2.364       .  S
Zr463       O470   2.382       .  S
Zr463       O493   2.384       .  S
Zr463       O495   2.383       .  S
O464        H507   0.990       .  S
O465        H506   0.990       .  S
O465        H510   0.990       .  S
Zr466       O467   2.437       .  S
Zr466       O468   2.429       .  S
Zr466       O470   2.378       .  S
Zr466       O469   2.392       .  S
Zr466       O494   2.426       .  S
Zr466       O496   2.380       .  S
O467        H508   0.990       .  S
O467        H511   0.990       .  S
O468        H501   0.989       .  S
O469       Zr489   2.432       .  S
O470       Zr490   2.418       .  S
O470        H497   0.960       .  S
O471       Zr483   2.432       .  S
O471        C473   1.284       .  A
O472       Zr490   2.336       .  S
O472        C473   1.269       .  A
C473        C577   1.438       .  S
O474       Zr486   2.432       .  S
O474        C476   1.277       .  A
O475       Zr489   2.409       .  S
O475        C476   1.274       .  A
C476        C567   1.471       .  S
O477       Zr486   2.428       .  S
O477        C479   1.280       .  A
O478       Zr490   2.397       .  S
O478        C479   1.276       .  A
C479        C634   1.473       .  S
O480       Zr483   2.423       .  S
O480        C482   1.274       .  A
O481       Zr489   2.432       .  S
O481        C482   1.278       .  A
C482        C607   1.481       .  S
Zr483       O484   2.437       .  S
Zr483       O485   2.433       .  S
Zr483       O491   2.347       .  S
Zr483       O492   2.392       .  S
Zr483       O495   2.363       .  S
Zr483       O493   2.363       .  S
O484        H504   0.990       .  S
O484        H509   0.990       .  S
O485        H505   0.990       .  S
Zr486       O487   2.436       .  S
Zr486       O488   2.438       .  S
Zr486       O492   2.385       .  S
Zr486       O491   2.366       .  S
Zr486       O496   2.390       .  S
Zr486       O494   2.385       .  S
O487        H503   0.990       .  S
O488        H502   0.990       .  S
O488        H512   0.989       .  S
Zr489       O492   2.404       .  S
Zr489       O494   2.410       .  S
Zr489       O495   2.472       .  S
Zr490       O491   2.396       .  S
Zr490       O493   2.384       .  S
Zr490       O496   2.392       .  S
O491        H499   0.963       .  S
O494        H498   0.964       .  S
O495        H500   0.963       .  S
C513        C514   1.422       .  A
C513        C518   1.381       .  A
C513        H520   1.078       .  S
C514        C515   1.404       .  A
C515        C516   1.381       .  A
C515        F522   1.352       .  S
C516        C517   1.403       .  A
C516        H521   1.084       .  S
C517        C518   1.386       .  A
C518        F519   1.358       .  S
C523        C524   1.394       .  A
C523        C528   1.388       .  A
C523        H530   1.084       .  S
C524        C525   1.400       .  A
C525        C526   1.396       .  A
C525        F532   1.352       .  S
C526        C527   1.411       .  A
C526        H531   1.081       .  S
C527        C528   1.422       .  A
C528        F529   1.353       .  S
C533        C534   1.420       .  A
C533        C538   1.382       .  A
C533        H540   1.083       .  S
C534        C535   1.402       .  A
C535        C536   1.388       .  A
C535        F542   1.346       .  S
C536        C537   1.399       .  A
C536        H541   1.077       .  S
C537        C538   1.387       .  A
C538        F539   1.358       .  S
C543        C544   1.421       .  A
C543        C548   1.396       .  A
C543        H550   1.078       .  S
C544        C545   1.405       .  A
C545        C546   1.396       .  A
C545        F552   1.356       .  S
C546        C547   1.411       .  A
C546        H551   1.081       .  S
C547        C548   1.398       .  A
C548        F549   1.358       .  S
C553        C554   1.403       .  A
C553        C558   1.391       .  A
C553        H560   1.082       .  S
C554        C555   1.400       .  A
C555        C556   1.391       .  A
C555        F562   1.357       .  S
C556        C557   1.408       .  A
C556        H561   1.083       .  S
C557        C558   1.406       .  A
C558        F559   1.358       .  S
C563        C564   1.412       .  A
C563        C568   1.387       .  A
C563        H570   1.076       .  S
C564        C565   1.415       .  A
C565        C566   1.394       .  A
C565        F572   1.355       .  S
C566        C567   1.399       .  A
C566        H571   1.079       .  S
C567        C568   1.398       .  A
C568        F569   1.358       .  S
C573        C574   1.413       .  A
C573        C578   1.383       .  A
C573        H580   1.077       .  S
C574        C575   1.402       .  A
C575        C576   1.374       .  A
C575        F582   1.357       .  S
C576        C577   1.403       .  A
C576        H581   1.083       .  S
C577        C578   1.391       .  A
C578        F579   1.358       .  S
C583        C584   1.405       .  A
C583        C588   1.395       .  A
C583        H590   1.081       .  S
C584        C585   1.423       .  A
C585        C586   1.393       .  A
C585        F592   1.354       .  S
C586        C587   1.393       .  A
C586        H591   1.083       .  S
C587        C588   1.410       .  A
C588        F589   1.354       .  S
C593        C594   1.393       .  A
C593        C598   1.377       .  A
C593        H600   1.074       .  S
C594        C595   1.427       .  A
C595        C596   1.380       .  A
C595        F602   1.358       .  S
C596        C597   1.384       .  A
C596        H601   1.084       .  S
C597        C598   1.407       .  A
C598        F599   1.357       .  S
C603        C604   1.413       .  A
C603        C608   1.400       .  A
C603        H610   1.077       .  S
C604        C605   1.417       .  A
C605        C606   1.392       .  A
C605        F612   1.356       .  S
C606        C607   1.403       .  A
C606        H611   1.083       .  S
C607        C608   1.403       .  A
C608        F609   1.356       .  S
C613        C614   1.404       .  A
C613        C618   1.389       .  A
C613        H620   1.082       .  S
C614        C615   1.398       .  A
C615        C616   1.389       .  A
C615        F622   1.356       .  S
C616        C617   1.411       .  A
C616        H621   1.083       .  S
C617        C618   1.406       .  A
C618        F619   1.358       .  S
C623        C624   1.412       .  A
C623        C628   1.396       .  A
C623        H630   1.081       .  S
C624        C625   1.420       .  A
C625        C626   1.380       .  A
C625        F632   1.354       .  S
C626        C627   1.395       .  A
C626        H631   1.084       .  S
C627        C628   1.399       .  A
C628        F629   1.354       .  S
C633        C634   1.405       .  A
C633        C638   1.394       .  A
C633        H640   1.081       .  S
C634        C635   1.412       .  A
C635        C636   1.386       .  A
C635        F642   1.355       .  S
C636        C637   1.393       .  A
C636        H641   1.078       .  S
C637        C638   1.404       .  A
C638        F639   1.358       .  S
C643        C644   1.403       .  A
C643        C648   1.399       .  A
C643        H650   1.081       .  S
C644        C645   1.425       .  A
C645        C646   1.389       .  A
C645        F652   1.355       .  S
C646        C647   1.390       .  A
C646        H651   1.084       .  S
C647        C648   1.411       .  A
C648        F649   1.356       .  S
C653        C654   1.403       .  A
C653        C658   1.386       .  A
C653        H660   1.076       .  S
C654        C655   1.404       .  A
C655        C656   1.382       .  A
C655        F662   1.358       .  S
C656        C657   1.401       .  A
C656        H661   1.083       .  S
C657        C658   1.396       .  A
C658        F659   1.356       .  S
C663        C664   1.407       .  A
C663        C668   1.390       .  A
C663        H670   1.081       .  S
C664        C665   1.419       .  A
C665        C666   1.386       .  A
C665        F672   1.354       .  S
C666        C667   1.392       .  A
C666        H671   1.084       .  S
C667        C668   1.405       .  A
C668        F669   1.356       .  S
C673        C675   1.560       .  S
C673        C677   1.545       .  S
C673        C676   1.571       .  S
C673       C1336   1.507       .  S
C674        C678   1.550       .  S
C674        C680   1.530       .  S
C674        C679   1.557       .  S
C674       C1326   1.493       .  S
C675        C683   1.400       .  A
C675        C678   1.385       .  A
C676        C687   1.405       .  A
C676        C679   1.391       .  A
C677        C691   1.388       .  A
C677        C680   1.366       .  A
C678        C681   1.388       .  A
C679        C685   1.393       .  A
C680        C688   1.392       .  A
C681        N682   1.359       .  A
C681        H694   1.082       .  S
N682        C683   1.367       .  A
N682        C717   1.465       .  S
C683        H684   1.082       .  S
C685        N686   1.359       .  A
C685        H695   1.078       .  S
N686        C687   1.376       .  A
N686        C776   1.480       .  S
C687        H693   1.082       .  S
C688        N689   1.366       .  A
C688        H690   1.082       .  S
N689        C691   1.363       .  A
N689        C957   1.465       .  S
C691        H692   1.082       .  S
N696        C701   1.362       .  A
N696        C700   1.363       .  A
N696        H728   1.039       .  S
N697        C704   1.363   1_655  A
N697        C705   1.363       .  A
N698        C703   1.365       .  A
N698        C702   1.362       .  A
N698        H729   1.040       .  S
N699        C706   1.361   1_655  A
N699        C707   1.361       .  A
C700        C708   1.385       .  A
C700        C716   1.430       .  A
C701        C717   1.432       .  A
C701        C709   1.387       .  A
C702        C710   1.388       .  A
C702        C719   1.436       .  A
C703        C718   1.430       .  A
C703        C711   1.384       .  A
C704        C716   1.432       .  A
C704        C712   1.385       .  A
C705        C719   1.432       .  A
C705        C713   1.386       .  A
C706        C714   1.384   1_455  A
C706        C717   1.426       .  A
C707        C715   1.387       .  A
C707        C718   1.431       .  A
C708        C709   1.381       .  A
C708        H720   1.082       .  S
C709        H721   1.082       .  S
C710        C711   1.382       .  A
C710        H722   1.082       .  S
C711        H723   1.082       .  S
C712        C713   1.378   1_455  A
C712        H724   1.082       .  S
C713        H725   1.081       .  S
C714        C715   1.377       .  A
C714        H726   1.082   1_655  S
C715        H727   1.082       .  S
C716       N1047   1.469       .  S
C718       N1001   1.469       .  S
C719        N739   1.471       .  S
C730        C732   1.567       .  S
C730        C734   1.546       .  S
C730        C733   1.543       .  S
C730       C1316   1.516       .  S
C731        C735   1.547       .  S
C731        C737   1.553       .  S
C731        C736   1.567       .  S
C731       C1309   1.520       .  S
C732        C740   1.401       .  A
C732        C735   1.399       .  A
C733        C744   1.390       .  A
C733        C736   1.377       .  A
C734        C748   1.394       .  A
C734        C737   1.377       .  A
C735        C738   1.382       .  A
C736        C742   1.410       .  A
C737        C745   1.391       .  A
C738        N739   1.364       .  A
C738        H751   1.082       .  S
N739        C740   1.375       .  A
C740        H741   1.082       .  S
C742        N743   1.364       .  A
C742        H752   1.078       .  S
N743        C744   1.358       .  A
N743        C808   1.469       .  S
C744        H750   1.082       .  S
C745        N746   1.359       .  A
C745        H747   1.079       .  S
N746        C748   1.362       .  A
N746        C922   1.462       .  S
C748        H749   1.082       .  S
N753        C758   1.368       .  A
N753        C757   1.361       .  A
N753        H785   1.040       .  S
N754        C761   1.360   1_545  A
N754        C762   1.363       .  A
N755        C760   1.364       .  A
N755        C759   1.368       .  A
N755        H786   1.041       .  S
N756        C763   1.362   1_545  A
N756        C764   1.356       .  A
C757        C765   1.387       .  A
C757        C773   1.435       .  A
C758        C774   1.436       .  A
C758        C766   1.385       .  A
C759        C767   1.387       .  A
C759        C776   1.443       .  A
C760        C775   1.437       .  A
C760        C768   1.386       .  A
C761        C773   1.430       .  A
C761        C769   1.387       .  A
C762        C776   1.427       .  A
C762        C770   1.384       .  A
C763        C771   1.384       .  A
C763        C774   1.425       .  A
C764        C772   1.388       .  A
C764        C775   1.427       .  A
C765        C766   1.383       .  A
C765        H777   1.082       .  S
C766        H778   1.082       .  S
C767        C768   1.385       .  A
C767        H779   1.082       .  S
C768        H780   1.082       .  S
C769        C770   1.374   1_565  A
C769        H781   1.081       .  S
C770        H782   1.081       .  S
C771        C772   1.376   1_565  A
C771        H783   1.082       .  S
C772        H784   1.082       .  S
C773       N1051   1.466       .  S
C774        N834   1.477       .  S
C775       N1028   1.464       .  S
N787        C792   1.360   1_545  A
N787        C791   1.366       .  A
N787        H819   1.041       .  S
N788        C795   1.365       .  A
N788        C796   1.360       .  A
N789        C794   1.366   1_545  A
N789        C793   1.360       .  A
N789        H820   1.041       .  S
N790        C797   1.366       .  A
N790        C798   1.369       .  A
C791        C799   1.385       .  A
C791        C807   1.431       .  A
C792        C808   1.432       .  A
C792        C800   1.389   1_565  A
C793        C801   1.390       .  A
C793        C810   1.435       .  A
C794        C809   1.429       .  A
C794        C802   1.383   1_565  A
C795        C807   1.432       .  A
C795        C803   1.384       .  A
C796        C810   1.432       .  A
C796        C804   1.387       .  A
C797        C805   1.385       .  A
C797        C808   1.438       .  A
C798        C806   1.387       .  A
C798        C809   1.445       .  A
C799        C800   1.381       .  A
C799        H811   1.082       .  S
C800        H812   1.082   1_545  S
C801        C802   1.381       .  A
C801        H813   1.081       .  S
C802        H814   1.082   1_545  S
C803        C804   1.379       .  A
C803        H815   1.082       .  S
C804        H816   1.082       .  S
C805        C806   1.380       .  A
C805        H817   1.082       .  S
C806        H818   1.082       .  S
C807       N1008   1.478       .  S
C809        N985   1.485       .  S
C810        N894   1.464       .  S
C821        C823   1.566       .  S
C821        C825   1.559       .  S
C821        C824   1.560       .  S
C821       C1286   1.511       .  S
C822        C826   1.559       .  S
C822        C828   1.548       .  S
C822        C827   1.553       .  S
C822       C1296   1.502       .  S
C823        C831   1.393       .  A
C823        C826   1.390       .  A
C824        C835   1.402       .  A
C824        C827   1.383       .  A
C825        C839   1.407       .  A
C825        C828   1.369       .  A
C826        C829   1.402       .  A
C827        C833   1.395       .  A
C828        C836   1.395       .  A
C829        N830   1.367       .  A
C829        H842   1.082       .  S
N830        C831   1.363       .  A
N830        C865   1.470       .  S
C831        H832   1.080       .  S
C833        N834   1.363       .  A
C833        H843   1.082       .  S
N834        C835   1.374       .  A
C835        H841   1.082       .  S
C836        N837   1.360       .  A
C836        H838   1.081       .  S
N837        C839   1.366       .  A
N837        C924   1.472       .  S
C839        H840   1.081       .  S
N844        C849   1.367       .  A
N844        C848   1.364       .  A
N844        H876   1.040       .  S
N845        C852   1.365   1_655  A
N845        C853   1.367       .  A
N846        C851   1.362       .  A
N846        C850   1.362       .  A
N846        H877   1.040       .  S
N847        C854   1.359   1_655  A
N847        C855   1.360       .  A
C848        C856   1.390       .  A
C848        C864   1.442       .  A
C849        C865   1.435       .  A
C849        C857   1.384       .  A
C850        C858   1.385       .  A
C850        C867   1.428       .  A
C851        C866   1.432       .  A
C851        C859   1.387       .  A
C852        C864   1.438       .  A
C852        C860   1.387       .  A
C853        C867   1.438       .  A
C853        C861   1.385       .  A
C854        C862   1.386       .  A
C854        C865   1.427       .  A
C855        C863   1.384       .  A
C855        C866   1.422       .  A
C856        C857   1.386       .  A
C856        H868   1.082       .  S
C857        H869   1.082       .  S
C858        C859   1.381       .  A
C858        H870   1.082       .  S
C859        H871   1.082       .  S
C860        C861   1.380   1_455  A
C860        H872   1.081       .  S
C861        H873   1.082       .  S
C862        C863   1.374   1_455  A
C862        H874   1.082       .  S
C863        H875   1.082       .  S
C864       N1024   1.476       .  S
C866        N978   1.463       .  S
C867        N887   1.474       .  S
C878        C880   1.585       .  S
C878        C882   1.544       .  S
C878        C881   1.580       .  S
C878       C1276   1.519       .  S
C879        C883   1.553       .  S
C879        C885   1.527       .  S
C879        C884   1.533       .  S
C879       C1266   1.490       .  S
C880        C888   1.406       .  A
C880        C883   1.401       .  A
C881        C892   1.413       .  A
C881        C884   1.383       .  A
C882        C896   1.396       .  A
C882        C885   1.357       .  A
C883        C886   1.392       .  A
C884        C890   1.381       .  A
C885        C893   1.389       .  A
C886        N887   1.361       .  A
C886        H899   1.081       .  S
N887        C888   1.374       .  A
C888        H889   1.082       .  S
C890        N891   1.354       .  A
C890        H900   1.083       .  S
N891        C892   1.378       .  A
N891        C955   1.472       .  S
C892        H898   1.082       .  S
C893        N894   1.360       .  A
C893        H895   1.082       .  S
N894        C896   1.363       .  A
C896        H897   1.082       .  S
N901        C905   1.361       .  A
N901        H933   1.042       .  S
N902        C909   1.364       .  A
N902        C910   1.363       .  A
N903        C907   1.363       .  A
N903        H934   1.040       .  S
N904        C911   1.356       .  A
N904        C912   1.360       .  A
C905        C913   1.388       .  A
C905        C921   1.431       .  A
C906        C922   1.428       .  A
C906        C914   1.385       .  A
C907        C915   1.385       .  A
C907        C924   1.433       .  A
C908        C923   1.432       .  A
C908        C916   1.386       .  A
C909        C921   1.431       .  A
C909        C917   1.384       .  A
C910        C924   1.435       .  A
C910        C918   1.387       .  A
C911        C919   1.387       .  A
C911        C922   1.425       .  A
C912        C920   1.383       .  A
C912        C923   1.421       .  A
C913        H925   1.082       .  S
C914        H926   1.082       .  S
C915        H927   1.082       .  S
C916        H928   1.082       .  S
C917        C918   1.379       .  A
C917        H929   1.081       .  S
C918        H930   1.081       .  S
C919        C920   1.377       .  A
C919        H931   1.082       .  S
C920        H932   1.082       .  S
C921        N982   1.471       .  S
C923       N1054   1.468       .  S
N935        C939   1.365       .  A
N935        H967   1.039       .  S
N936        C943   1.362       .  A
N936        C944   1.360       .  A
N937        C941   1.359       .  A
N937        H968   1.041       .  S
N938        C945   1.360       .  A
N938        C946   1.361       .  A
C939        C947   1.387       .  A
C939        C955   1.438       .  A
C940        C956   1.436       .  A
C940        C948   1.386       .  A
C941        C949   1.385       .  A
C941        C958   1.423       .  A
C942        C957   1.428       .  A
C942        C950   1.388       .  A
C943        C955   1.425       .  A
C943        C951   1.383       .  A
C944        C958   1.430       .  A
C944        C952   1.387       .  A
C945        C953   1.387       .  A
C945        C956   1.429       .  A
C946        C954   1.385       .  A
C946        C957   1.427       .  A
C947        H959   1.082       .  S
C948        H960   1.082       .  S
C949        H961   1.082       .  S
C950        H962   1.082       .  S
C951        C952   1.377       .  A
C951        H963   1.082       .  S
C952        H964   1.081       .  S
C953        C954   1.377       .  A
C953        H965   1.082       .  S
C954        H966   1.082       .  S
C956       N1005   1.470       .  S
C958       N1031   1.464       .  S
C969        C971   1.568       .  S
C969        C973   1.583       .  S
C969        C972   1.552       .  S
C969       C1256   1.518       .  S
C970        C974   1.541       .  S
C970        C976   1.536       .  S
C970        C975   1.547       .  S
C970       C1246   1.492       .  S
C971        C979   1.403       .  A
C971        C974   1.386       .  A
C972        C983   1.389       .  A
C972        C975   1.374       .  A
C973        C987   1.419       .  A
C973        C976   1.382       .  A
C974        C977   1.386       .  A
C975        C981   1.400       .  A
C976        C984   1.382       .  A
C977        N978   1.355       .  A
C977        H990   1.081       .  S
N978        C979   1.369       .  A
C979        H980   1.082       .  S
C981        N982   1.369       .  A
C981        H991   1.082       .  S
N982        C983   1.363       .  A
C983        H989   1.082       .  S
C984        N985   1.357       .  A
C984        H986   1.082       .  S
N985        C987   1.384       .  A
C987        H988   1.082       .  S
C992        C994   1.565       .  S
C992        C996   1.557       .  S
C992        C995   1.552       .  S
C992       C1226   1.515       .  S
C993        C997   1.558       .  S
C993        C999   1.562       .  S
C993        C998   1.552       .  S
C993       C1236   1.515       .  S
C994       C1002   1.393       .  A
C994        C997   1.393       .  A
C995       C1006   1.402       .  A
C995        C998   1.371       .  A
C996       C1010   1.401       .  A
C996        C999   1.387       .  A
C997       C1000   1.401       .  A
C998       C1004   1.397       .  A
C999       C1007   1.399       .  A
C1000      N1001   1.368       .  A
C1000      H1013   1.082       .  S
N1001      C1002   1.359       .  A
C1002      H1003   1.079       .  S
C1004      N1005   1.364       .  A
C1004      H1014   1.082       .  S
N1005      C1006   1.361       .  A
C1006      H1012   1.080       .  S
C1007      N1008   1.366       .  A
C1007      H1009   1.081       .  S
N1008      C1010   1.372       .  A
C1010      H1011   1.082       .  S
C1015      C1017   1.561       .  S
C1015      C1019   1.535       .  S
C1015      C1018   1.532       .  S
C1015      C1206   1.501       .  S
C1016      C1020   1.576       .  S
C1016      C1022   1.559       .  S
C1016      C1021   1.545       .  S
C1016      C1216   1.520       .  S
C1017      C1025   1.390       .  A
C1017      C1020   1.409       .  A
C1018      C1029   1.393       .  A
C1018      C1021   1.365       .  A
C1019      C1033   1.382       .  A
C1019      C1022   1.374       .  A
C1020      C1023   1.401       .  A
C1021      C1027   1.391       .  A
C1022      C1030   1.401       .  A
C1023      N1024   1.374       .  A
C1023      H1036   1.082       .  S
N1024      C1025   1.364       .  A
C1025      H1026   1.079       .  S
C1027      N1028   1.365       .  A
C1027      H1037   1.082       .  S
N1028      C1029   1.362       .  A
C1029      H1035   1.082       .  S
C1030      N1031   1.368       .  A
C1030      H1032   1.082       .  S
N1031      C1033   1.356       .  A
C1033      H1034   1.082       .  S
C1038      C1040   1.565       .  S
C1038      C1042   1.568       .  S
C1038      C1041   1.537       .  S
C1038      C1199   1.505       .  S
C1039      C1043   1.554       .  S
C1039      C1045   1.550       .  S
C1039      C1044   1.544       .  S
C1039      C1186   1.502       .  S
C1040      C1048   1.396       .  A
C1040      C1043   1.392       .  A
C1041      C1052   1.392       .  A
C1041      C1044   1.358       .  A
C1042      C1056   1.405       .  A
C1042      C1045   1.390       .  A
C1043      C1046   1.394       .  A
C1044      C1050   1.397       .  A
C1045      C1053   1.385       .  A
C1046      N1047   1.366       .  A
C1046      H1059   1.082       .  S
N1047      C1048   1.365       .  A
C1048      H1049   1.082       .  S
C1050      N1051   1.365       .  A
C1050      H1060   1.081       .  S
N1051      C1052   1.359       .  A
C1052      H1058   1.082       .  S
C1053      N1054   1.355       .  A
C1053      H1055   1.081       .  S
N1054      C1056   1.374       .  A
C1056      H1057   1.082       .  S
O1061     Zr1073   2.463   1_455  S
O1061      C1063   1.283       .  A
O1062      C1063   1.278       .  A
C1063      C1339   1.467       .  S
O1064     Zr1076   2.414       .  S
O1064      C1066   1.274       .  A
O1065      C1066   1.280       .  A
C1066      C1319   1.467   1_545  S
O1067     Zr1076   2.386   1_455  S
O1067      C1069   1.270   1_545  A
O1068      C1069   1.273   1_545  A
C1069      C1189   1.453       .  S
O1070     Zr1073   2.430       .  S
O1070      C1072   1.279       .  A
O1071      C1072   1.271       .  A
C1072      C1229   1.470       .  S
Zr1073     O1074   2.432   1_655  S
Zr1073     O1075   2.437       .  S
Zr1073     O1079   2.382   1_655  S
Zr1073     O1080   2.403       .  S
O1074      H1117   0.987       .  S
O1075      H1116   0.990   1_655  S
O1075      H1120   0.990       .  S
Zr1076     O1077   2.433   1_655  S
Zr1076     O1078   2.439       .  S
Zr1076     O1080   2.341       .  S
Zr1076     O1079   2.366   1_655  S
O1077      H1118   0.990   1_455  S
O1077      H1121   0.991       .  S
O1078      H1111   0.990       .  S
O1080      H1107   0.959       .  S
O1081     Zr1093   2.369       .  S
O1081      C1083   1.273       .  A
O1082     Zr1100   2.384   1_556  S
O1082      C1083   1.277       .  A
C1083      C1269   1.435       .  S
O1084     Zr1096   2.438   1_456  S
O1084      C1086   1.282       .  A
O1085     Zr1099   2.405   1_554  S
O1085      C1086   1.272   1_554  A
C1086      C1289   1.468       .  S
O1087     Zr1096   2.460       .  S
O1087      C1089   1.287       .  A
O1088     Zr1100   2.406   1_565  S
O1088      C1089   1.277       .  A
C1089      C1259   1.482   1_554  S
O1090     Zr1093   2.443   1_465  S
O1090      C1092   1.282   1_565  A
O1091     Zr1099   2.431       .  S
O1091      C1092   1.285   1_565  A
C1092      C1219   1.485       .  S
Zr1093     O1094   2.438   1_545  S
Zr1093     O1095   2.440       .  S
Zr1093     O1101   2.348   1_545  S
Zr1093     O1102   2.328   1_645  S
Zr1093     O1105   2.359   1_655  S
Zr1093     O1103   2.300       .  S
O1094      H1114   0.991       .  S
O1094      H1119   0.990       .  S
O1095      H1115   0.990       .  S
Zr1096     O1097   2.431   1_554  S
Zr1096     O1098   2.437       .  S
Zr1096     O1102   2.395   1_654  S
Zr1096     O1101   2.378   1_554  S
Zr1096     O1104   2.370   1_655  S
Zr1096     O1106   2.278       .  S
O1097      H1113   0.990       .  S
O1098      H1112   0.990       .  S
O1098      H1122   0.990   1_655  S
Zr1099     O1102   2.390       .  S
Zr1099     O1104   2.405   1_556  S
Zr1099     O1105   2.391   1_565  S
Zr1100     O1101   2.400   1_544  S
Zr1100     O1103   2.274   1_554  S
Zr1100     O1106   2.269   1_545  S
O1101      H1109   0.960       .  S
O1104      H1108   0.959       .  S
O1105      H1110   0.954       .  S
O1123     Zr1135   2.391       .  S
O1123      C1125   1.261       .  A
O1124     Zr1161   2.411       .  S
O1124      C1125   1.265       .  A
C1125      C1209   1.438       .  S
O1126     Zr1138   2.429       .  S
O1126      C1128   1.266       .  A
O1127     Zr1162   2.415       .  S
O1127      C1128   1.274       .  A
C1128      C1196   1.461       .  S
O1129     Zr1138   2.378       .  S
O1129      C1131   1.257       .  A
O1130     Zr1161   2.410       .  S
O1130      C1131   1.267       .  A
C1131      C1329   1.440       .  S
O1132     Zr1135   2.436       .  S
O1132      C1134   1.278       .  A
O1133     Zr1162   2.419       .  S
O1133      C1134   1.272       .  A
C1134      C1299   1.463       .  S
Zr1135     O1136   2.436       .  S
Zr1135     O1137   2.435       .  S
Zr1135     O1141   2.362       .  S
Zr1135     O1142   2.375       .  S
Zr1135     O1165   2.390       .  S
Zr1135     O1167   2.371       .  S
O1136      H1179   0.990       .  S
O1137      H1178   0.990       .  S
O1137      H1182   0.990       .  S
Zr1138     O1139   2.442       .  S
Zr1138     O1140   2.433       .  S
Zr1138     O1142   2.375       .  S
Zr1138     O1141   2.406       .  S
Zr1138     O1166   2.436       .  S
Zr1138     O1168   2.375       .  S
O1139      H1180   0.990       .  S
O1139      H1183   0.990       .  S
O1140      H1173   0.990       .  S
O1141     Zr1161   2.441       .  S
O1142     Zr1162   2.413       .  S
O1142      H1169   0.959       .  S
O1143     Zr1155   2.441       .  S
O1143      C1145   1.287       .  A
O1144     Zr1162   2.336       .  S
O1144      C1145   1.270       .  A
C1145      C1249   1.443       .  S
O1146     Zr1158   2.439       .  S
O1146      C1148   1.277       .  A
O1147     Zr1161   2.401       .  S
O1147      C1148   1.271       .  A
C1148      C1239   1.472       .  S
O1149     Zr1158   2.425       .  S
O1149      C1151   1.279       .  A
O1150     Zr1162   2.392       .  S
O1150      C1151   1.276       .  A
C1151      C1306   1.472       .  S
O1152     Zr1155   2.422       .  S
O1152      C1154   1.273       .  A
O1153     Zr1161   2.446       .  S
O1153      C1154   1.281       .  A
C1154      C1279   1.485       .  S
Zr1155     O1156   2.436       .  S
Zr1155     O1157   2.431       .  S
Zr1155     O1163   2.346       .  S
Zr1155     O1164   2.393       .  S
Zr1155     O1167   2.369       .  S
Zr1155     O1165   2.366       .  S
O1156      H1176   0.990       .  S
O1156      H1181   0.990       .  S
O1157      H1177   0.990       .  S
Zr1158     O1159   2.437       .  S
Zr1158     O1160   2.440       .  S
Zr1158     O1164   2.384       .  S
Zr1158     O1163   2.372       .  S
Zr1158     O1168   2.401       .  S
Zr1158     O1166   2.384       .  S
O1159      H1175   0.989       .  S
O1160      H1174   0.990       .  S
O1160      H1184   0.990       .  S
Zr1161     O1164   2.408       .  S
Zr1161     O1166   2.420       .  S
Zr1161     O1167   2.474       .  S
Zr1162     O1163   2.400       .  S
Zr1162     O1165   2.381       .  S
Zr1162     O1168   2.393       .  S
O1163      H1171   0.964       .  S
O1166      H1170   0.964       .  S
O1167      H1172   0.963       .  S
C1185      C1186   1.418       .  A
C1185      C1190   1.382       .  A
C1185      H1192   1.072       .  S
C1186      C1187   1.407       .  A
C1187      C1188   1.381       .  A
C1187      F1194   1.355       .  S
C1188      C1189   1.404       .  A
C1188      H1193   1.084       .  S
C1189      C1190   1.389       .  A
C1190      F1191   1.358       .  S
C1195      C1196   1.393       .  A
C1195      C1200   1.384       .  A
C1195      H1202   1.084       .  S
C1196      C1197   1.400       .  A
C1197      C1198   1.394       .  A
C1197      F1204   1.352       .  S
C1198      C1199   1.410       .  A
C1198      H1203   1.081       .  S
C1199      C1200   1.421       .  A
C1200      F1201   1.354       .  S
C1205      C1206   1.419       .  A
C1205      C1210   1.380       .  A
C1205      H1212   1.083       .  S
C1206      C1207   1.398       .  A
C1207      C1208   1.386       .  A
C1207      F1214   1.351       .  S
C1208      C1209   1.403       .  A
C1208      H1213   1.075       .  S
C1209      C1210   1.385       .  A
C1210      F1211   1.358       .  S
C1215      C1216   1.418       .  A
C1215      C1220   1.391       .  A
C1215      H1222   1.077       .  S
C1216      C1217   1.407       .  A
C1217      C1218   1.400       .  A
C1217      F1224   1.357       .  S
C1218      C1219   1.413       .  A
C1218      H1223   1.080       .  S
C1219      C1220   1.396       .  A
C1220      F1221   1.358       .  S
C1225      C1226   1.405       .  A
C1225      C1230   1.392       .  A
C1225      H1232   1.083       .  S
C1226      C1227   1.397       .  A
C1227      C1228   1.387       .  A
C1227      F1234   1.356       .  S
C1228      C1229   1.407       .  A
C1228      H1233   1.080       .  S
C1229      C1230   1.406       .  A
C1230      F1231   1.358       .  S
C1235      C1236   1.409       .  A
C1235      C1240   1.385       .  A
C1235      H1242   1.074       .  S
C1236      C1237   1.415       .  A
C1237      C1238   1.395       .  A
C1237      F1244   1.356       .  S
C1238      C1239   1.399       .  A
C1238      H1243   1.081       .  S
C1239      C1240   1.402       .  A
C1240      F1241   1.358       .  S
C1245      C1246   1.413       .  A
C1245      C1250   1.386       .  A
C1245      H1252   1.078       .  S
C1246      C1247   1.401       .  A
C1247      C1248   1.375       .  A
C1247      F1254   1.358       .  S
C1248      C1249   1.404       .  A
C1248      H1253   1.083       .  S
C1249      C1250   1.392       .  A
C1250      F1251   1.358       .  S
C1255      C1256   1.405       .  A
C1255      C1260   1.396       .  A
C1255      H1262   1.081       .  S
C1256      C1257   1.422       .  A
C1257      C1258   1.393       .  A
C1257      F1264   1.353       .  S
C1258      C1259   1.393       .  A
C1258      H1263   1.083       .  S
C1259      C1260   1.411       .  A
C1260      F1261   1.355       .  S
C1265      C1266   1.395       .  A
C1265      C1270   1.375       .  A
C1265      H1272   1.076       .  S
C1266      C1267   1.426       .  A
C1267      C1268   1.380       .  A
C1267      F1274   1.357       .  S
C1268      C1269   1.386       .  A
C1268      H1273   1.084       .  S
C1269      C1270   1.406       .  A
C1270      F1271   1.358       .  S
C1275      C1276   1.413       .  A
C1275      C1280   1.402       .  A
C1275      H1282   1.079       .  S
C1276      C1277   1.418       .  A
C1277      C1278   1.393       .  A
C1277      F1284   1.355       .  S
C1278      C1279   1.402       .  A
C1278      H1283   1.083       .  S
C1279      C1280   1.405       .  A
C1280      F1281   1.357       .  S
C1285      C1286   1.401       .  A
C1285      C1290   1.388       .  A
C1285      H1292   1.082       .  S
C1286      C1287   1.401       .  A
C1287      C1288   1.391       .  A
C1287      F1294   1.357       .  S
C1288      C1289   1.408       .  A
C1288      H1293   1.083       .  S
C1289      C1290   1.406       .  A
C1290      F1291   1.358       .  S
C1295      C1296   1.410       .  A
C1295      C1300   1.390       .  A
C1295      H1302   1.079       .  S
C1296      C1297   1.418       .  A
C1297      C1298   1.381       .  A
C1297      F1304   1.354       .  S
C1298      C1299   1.395       .  A
C1298      H1303   1.084       .  S
C1299      C1300   1.400       .  A
C1300      F1301   1.354       .  S
C1305      C1306   1.405       .  A
C1305      C1310   1.398       .  A
C1305      H1312   1.082       .  S
C1306      C1307   1.410       .  A
C1307      C1308   1.384       .  A
C1307      F1314   1.356       .  S
C1308      C1309   1.391       .  A
C1308      H1313   1.077       .  S
C1309      C1310   1.407       .  A
C1310      F1311   1.359       .  S
C1315      C1316   1.401       .  A
C1315      C1320   1.399       .  A
C1315      H1322   1.081       .  S
C1316      C1317   1.426       .  A
C1317      C1318   1.386       .  A
C1317      F1324   1.357       .  S
C1318      C1319   1.388       .  A
C1318      H1323   1.084       .  S
C1319      C1320   1.411       .  A
C1320      F1321   1.354       .  S
C1325      C1326   1.400       .  A
C1325      C1330   1.383       .  A
C1325      H1332   1.077       .  S
C1326      C1327   1.403       .  A
C1327      C1328   1.380       .  A
C1327      F1334   1.358       .  S
C1328      C1329   1.401       .  A
C1328      H1333   1.084       .  S
C1329      C1330   1.396       .  A
C1330      F1331   1.352       .  S
C1335      C1336   1.406       .  A
C1335      C1340   1.391       .  A
C1335      H1342   1.082       .  S
C1336      C1337   1.419       .  A
C1337      C1338   1.388       .  A
C1337      F1344   1.354       .  S
C1338      C1339   1.393       .  A
C1338      H1343   1.083       .  S
C1339      C1340   1.404       .  A
C1340      F1341   1.356       .  S
