geometry optimzed in LAMMPS
_audit_creation_date              2020-12-01 
_audit_creation_method            'lammps2cif' 
_symmetry_space_group_name_H-M    'P1' 
_symmetry_Int_Tables_number       1 
_symmetry_cell_setting            triclinic 
loop_ 
_symmetry_equiv_pos_as_xyz 
  x,y,z 
_cell_length_a                    37.79496307 
_cell_length_b                    38.01088689912232 
_cell_length_c                    65.86089285897003 
_cell_angle_alpha                 89.68398866005771 
_cell_angle_beta                  89.8872785948695 
_cell_angle_gamma                 90.01811173681924 
loop_ 
_atom_site_label 
_atom_site_type_symbol 
_atom_site_fract_x 
_atom_site_fract_y 
_atom_site_fract_z 
_atom_site_charge 
C1          C  0.43387739  0.30895385  0.35488692     0.03700
C2          C  0.41096831  0.28702299  0.34378236    -0.12500
C3          C  0.41051898  0.28847019  0.32246512     0.01200
C4          C  0.43258365  0.31244082  0.31230073    -0.11000
C5          C  0.45428119  0.33544126  0.32320731     0.03700
C6          C  0.45456187  0.33384473  0.34443764    -0.10400
H7          H  0.39522115  0.26724796  0.35146262     0.09300
H8          H  0.43302486  0.31315180  0.29584576     0.06800
H9          H  0.47258838  0.35055268  0.35277528     0.06600
C10         C  0.41885245  0.32817187  0.18269384     0.03700
C11         C  0.44396582  0.34657671  0.19422404    -0.12500
C12         C  0.44897395  0.33883266  0.21484810     0.01200
C13         C  0.42841109  0.31256390  0.22410970    -0.11000
C14         C  0.40293073  0.29407820  0.21295543     0.03700
C15         C  0.39813543  0.30213633  0.19228318    -0.10400
H16         H  0.46047372  0.36637041  0.18714993     0.09300
H17         H  0.43219070  0.30645523  0.24004063     0.06800
H18         H  0.37888648  0.28756860  0.18354045     0.06600
C19         C  0.20332335  0.32624297  0.35445071     0.03700
C20         C  0.22184001  0.29965910  0.34412180    -0.12500
C21         C  0.21488681  0.29234428  0.32355086     0.01200
C22         C  0.18877895  0.31183021  0.31329461    -0.11000
C23         C  0.17036100  0.33891929  0.32318911     0.03700
C24         C  0.17794135  0.34601162  0.34368044    -0.10400
H25         H  0.24140874  0.28430394  0.35223363     0.09300
H26         H  0.18316123  0.30625857  0.29750683     0.06800
H27         H  0.16326880  0.36638673  0.35132478     0.06600
C28         C  0.43289163  0.05794726  0.17996433     0.03700
C29         C  0.40882502  0.07874129  0.19094224    -0.12500
C30         C  0.40871017  0.07836145  0.21225065     0.01200
C31         C  0.43236255  0.05624711  0.22269204    -0.11000
C32         C  0.45498648  0.03360043  0.21196810     0.03700
C33         C  0.45499398  0.03454582  0.19064154    -0.10400
H34         H  0.39179983  0.09712717  0.18308989     0.09300
H35         H  0.43289839  0.05640304  0.23914776     0.06800
H36         H  0.47365822  0.01838965  0.18237309     0.06600
C37         C  0.47952736  0.35817553  0.31233823     0.43000
N38         N  0.02213307  0.37161312  0.29232803     0.01900
C39         C  0.12533915  0.02166564  0.29125391    -0.06000
H40         H  0.99191105  0.04501106  0.28211119     0.07400
C41         C  0.99622093  0.47778995  0.21605666    -0.06300
Co42       Co  0.06064951  0.43626273  0.30517107     0.74200
N43         N  0.02249494  0.49851084  0.28858903    -0.25500
Co44       Co  0.06062861  0.49717295  0.26585619     0.74100
C45         C  0.98030459  0.01076365  0.22296883     0.43100
N46         N  0.02028886  0.39168694  0.23263101     0.01500
N47         N  0.02155043  0.49555457  0.24355968     0.01600
N48         N  0.12339673  0.48287365  0.31744585    -0.46400
H49         H  0.99050327  0.40607427  0.33274101     0.07400
N50         N  0.02217996  0.47552447  0.30368388     0.01900
N51         N  0.09894801  0.49413451  0.24317723     0.01600
C52         C  0.14212635  0.50610753  0.22321336     0.43200
N53         N  0.02089213  0.36836322  0.24755627    -0.25000
C54         C  0.12530246  0.39160824  0.31905568    -0.05900
N55         N  0.99714609  0.34789759  0.29560380    -0.46100
N56         N  0.12486028  0.01697857  0.23999762    -0.46300
C57         C  0.14253909  0.35923699  0.31238058     0.43000
N58         N  0.09919455  0.47550737  0.30354891     0.01900
N59         N  0.09778908  0.36782836  0.24666024    -0.25000
N60         N  0.02224914  0.39686377  0.30598726    -0.25500
N61         N  0.09724891  0.39046998  0.23139888     0.01500
H62         H  0.12828962  0.32114603  0.25266211     0.07400
H63         H  0.13006434  0.45808613  0.20305890     0.07400
N64         N  0.09939645  0.49810221  0.28826756    -0.25500
N65         N  0.02137213  0.47042780  0.22981476    -0.25100
N66         N  0.09968222  0.37163503  0.29209955     0.01900
C67         C  0.98040516  0.01159964  0.31069301     0.43300
C68         C  0.99423926  0.34556264  0.24494729    -0.06400
N69         N  0.09819681  0.46888730  0.22950670    -0.25100
H70         H  0.99077217  0.46272418  0.20253429     0.07400
N71         N  0.99756179  0.48255760  0.31744235    -0.46400
H72         H  0.98875248  0.32294029  0.25447202     0.07400
C73         C  0.13835185  0.35404870  0.22372487     0.43100
C74         C  0.99628692  0.39051716  0.31944217    -0.05900
Co75       Co  0.06026714  0.36915927  0.26971079     0.73800
N76         N  0.99458689  0.38577837  0.21946922    -0.46100
C77         C  0.14123723  0.51135716  0.31052623     0.43400
N78         N  0.12511224  0.34830815  0.29561428    -0.46100
Co79       Co  0.05921575  0.43029380  0.23039768     0.73900
C80         C  0.12448367  0.47422676  0.21614999    -0.06400
C81         C  0.99696264  0.02228372  0.29161833    -0.06000
N82         N  0.09922799  0.39709524  0.30565717    -0.25500
N83         N  0.99757995  0.02028223  0.23999626    -0.46300
H84         H  0.13067638  0.04435880  0.28175228     0.07400
C85         C  0.12300382  0.34393436  0.24324214    -0.06400
Cl86       Cl  0.06021710  0.43321722  0.26778211    -0.49400
C87         C  0.47682412  0.35724604  0.22632339     0.43100
H88         H  0.13077919  0.40788167  0.33209237     0.07400
N89         N  0.12079962  0.38286643  0.21711253    -0.46100
C90         C  0.18694585  0.31125468  0.17969342     0.03700
C91         C  0.20978901  0.28854562  0.19049340    -0.12500
C92         C  0.20942104  0.28777633  0.21184183     0.01200
C93         C  0.18688476  0.31045375  0.22235544    -0.11000
C94         C  0.16455731  0.33367293  0.21201623     0.03700
C95         C  0.16520017  0.33463071  0.19072313    -0.10400
H96         H  0.22622263  0.26998675  0.18235615     0.09300
H97         H  0.18642496  0.30974182  0.23879216     0.06800
H98         H  0.14710242  0.35209520  0.18297830     0.06600
C99         C  0.42379754  0.04669353  0.35376440     0.03700
C100        C  0.44864460  0.02644866  0.34292651    -0.12500
C101        C  0.45303830  0.03110205  0.32195557     0.01200
C102        C  0.43220009  0.05577844  0.31170042    -0.11000
C103        C  0.40736689  0.07621486  0.32208631     0.03700
C104        C  0.40288195  0.07130400  0.34311059    -0.10400
H105        H  0.96494034  0.00727594  0.35066704     0.09300
H106        H  0.43529433  0.05901915  0.29546636     0.06800
H107        H  0.38387006  0.08728297  0.35123368     0.06600
C108        C  0.18507177  0.05695044  0.35511184     0.03700
C109        C  0.20994980  0.07807175  0.34485259    -0.12500
C110        C  0.21236165  0.07753281  0.32362762     0.01200
C111        C  0.19031222  0.05507633  0.31256614    -0.11000
C112        C  0.16641610  0.03265071  0.32254317     0.03700
C113        C  0.16424568  0.03329305  0.34383187    -0.10400
H114        H  0.22583224  0.09670042  0.35326418     0.09300
H115        H  0.19154211  0.05535675  0.29612038     0.06800
H116        H  0.14461521  0.01706728  0.35130808     0.06600
C117        C  0.20333063  0.04243947  0.18255399     0.03700
C118        C  0.22271152  0.06707009  0.19389704    -0.12500
C119        C  0.21555482  0.07216651  0.21465213     0.01200
C120        C  0.18951590  0.05158922  0.22417219    -0.11000
C121        C  0.17067356  0.02623393  0.21323334     0.03700
C122        C  0.17775938  0.02167571  0.19251998    -0.10400
H123        H  0.24246547  0.08322445  0.18639325     0.09300
H124        H  0.18381718  0.05526609  0.24014296     0.06800
H125        H  0.16274895  0.00239385  0.18418045     0.06600
C126        C  0.23475194  0.26424071  0.31288219     0.43000
N127        N  0.24760349  0.22245252  0.29219867     0.01900
C128        C  0.39854767  0.12003121  0.29162789    -0.06000
H129        H  0.42234794  0.25240485  0.28188584     0.07400
C130        C  0.35066677  0.24783639  0.21587721    -0.06300
Co131      Co  0.31293228  0.18400402  0.30518101     0.74200
N132        N  0.37522644  0.22229668  0.28819694    -0.25500
Co133      Co  0.37389233  0.18397184  0.26577203     0.74100
C134        C  0.38285641  0.26532043  0.22285570     0.43100
N135        N  0.26637195  0.22055881  0.23130820     0.01500
N136        N  0.37082457  0.22231767  0.24296289     0.01600
N137        N  0.35917899  0.12125352  0.31760065    -0.46400
H138        H  0.28396513  0.25269608  0.33244879     0.07400
N139        N  0.35253823  0.22221710  0.30346208     0.01900
N140        N  0.37186716  0.14520079  0.24355243     0.01600
C141        C  0.38589621  0.10320412  0.22344084     0.43200
N142        N  0.24361934  0.22090454  0.24654687    -0.25000
C143        C  0.26708945  0.12028288  0.31988335    -0.05900
N144        N  0.22379934  0.24728240  0.29597419    -0.46100
N145        N  0.39613773  0.12074255  0.24019715    -0.46300
C146        C  0.23472626  0.10324785  0.31282298     0.43000
N147        N  0.35226881  0.14580534  0.30378493     0.01900
N148        N  0.24451177  0.14415148  0.24742346    -0.25000
N149        N  0.27340600  0.22209309  0.30570205    -0.25500
N150        N  0.26771576  0.14403385  0.23240985     0.01500
H151        H  0.19960453  0.11121337  0.25443703     0.07400
H152        H  0.33736989  0.11382902  0.20313375     0.07400
N153        N  0.37515062  0.14587152  0.28861559    -0.25500
N154        N  0.34530488  0.22167196  0.22931051    -0.25100
N155        N  0.24803377  0.14531802  0.29244562     0.01900
C156        C  0.38948265  0.26306686  0.31067320     0.43300
C157        C  0.21954948  0.24598159  0.24306117    -0.06400
N158        N  0.34641736  0.14509899  0.22988141    -0.25100
H159        H  0.33435615  0.25345861  0.20278318     0.07400
N160        N  0.36047865  0.24583287  0.31748298    -0.46400
H161        H  0.19666460  0.25122509  0.25245377     0.07400
C162        C  0.23377949  0.10023645  0.22607805     0.43100
C163        C  0.26763461  0.24747683  0.31934250    -0.05900
Co164      Co  0.24520466  0.18333268  0.26968697     0.73800
N165        N  0.25868799  0.24402690  0.21699256    -0.46100
C166        C  0.38790001  0.10372570  0.31082148     0.43400
N167        N  0.22433478  0.12037131  0.29588597    -0.46100
Co168      Co  0.30638945  0.18285265  0.23031030     0.73900
C169        C  0.35302115  0.11951564  0.21644987    -0.06400
C170        C  0.39937406  0.24746193  0.29129730    -0.06000
N171        N  0.27338868  0.14580977  0.30618363    -0.25500
N172        N  0.39383867  0.24797558  0.23964627    -0.46300
H173        H  0.42113092  0.11463420  0.28203546     0.07400
C174        C  0.22204927  0.11722086  0.24481763    -0.06400
Cl175      Cl  0.30958239  0.18365311  0.26774209    -0.49400
C176        C  0.22964686  0.26132289  0.22351110     0.43100
H177        H  0.28273203  0.11490964  0.33327928     0.07400
N178        N  0.26203644  0.11849696  0.21920445    -0.46100
N179        N  0.31126248  0.44173415  0.55159638    -0.36100
N180        N  0.28064241  0.39448731  0.52102736    -0.56600
N181        N  0.32030961  0.43256654  0.48984873    -0.36100
N182        N  0.35499841  0.47584599  0.52055539    -0.56600
C183        C  0.29434456  0.41821746  0.56366731     0.27500
C184        C  0.33398746  0.45996676  0.56343429     0.27500
C185        C  0.30490266  0.40762486  0.47823368     0.27500
C186        C  0.34363078  0.45032808  0.47802111     0.27500
C187        C  0.26144739  0.38397404  0.53729047     0.36100
C188        C  0.26576441  0.37951012  0.50452486     0.36100
C189        C  0.36518814  0.49520878  0.53663286     0.36100
C190        C  0.36861868  0.49167683  0.50388677     0.36100
C191        C  0.30606853  0.42196324  0.58350045    -0.21400
C192        C  0.33100885  0.44823205  0.58335292    -0.21400
C193        C  0.31874979  0.40961177  0.45872018    -0.21300
C194        C  0.34308950  0.43639440  0.45859769    -0.21300
C195        C  0.23475859  0.36137487  0.53117230    -0.22400
C196        C  0.23749115  0.35855986  0.51041238    -0.22400
C197        C  0.38615632  0.52307540  0.53021545    -0.22400
C198        C  0.38826409  0.52087987  0.50943641    -0.22400
C199        C  0.26776224  0.39417101  0.55758894    -0.17800
C200        C  0.35667150  0.48760783  0.55705720    -0.17800
C201        C  0.36400160  0.48001374  0.48374537    -0.17800
C202        C  0.27721266  0.38451113  0.48422005    -0.17800
H203        H  0.29768416  0.40715498  0.59674599     0.15200
H204        H  0.34538733  0.45753167  0.59646978     0.15200
H205        H  0.31178105  0.39380473  0.44572038     0.15200
H206        H  0.35828569  0.44490116  0.44552184     0.15200
H207        H  0.21519441  0.34846433  0.54064803     0.13400
H208        H  0.22046387  0.34306437  0.50075085     0.13400
H209        H  0.39883842  0.04287078  0.53939788     0.13400
H210        H  0.40280847  0.03859126  0.49943654     0.13400
H211        H  0.30619968  0.44623839  0.53639648     0.26700
H212        H  0.31380668  0.43852328  0.50461667     0.26700
N213        N  0.06116583  0.18564445  0.05058668    -0.36100
N214        N  0.09663114  0.22870298  0.01970051    -0.56600
N215        N  0.05083466  0.19734862  0.98894843    -0.36100
N216        N  0.01479152  0.15475117  0.01983281    -0.56600
C217        C  0.07937046  0.20834204  0.06246742     0.27500
C218        C  0.03682178  0.16944644  0.06254727     0.27500
C219        C  0.07216636  0.21696003  0.97679350     0.27500
C220        C  0.02969592  0.17785321  0.97679763     0.27500
C221        C  0.11589083  0.23873634  0.03589765     0.36100
C222        C  0.11165290  0.24378585  0.00320539     0.36100
C223        C  0.00246260  0.13686695  0.03614569     0.36100
C224        C  0.99843335  0.14139091  0.00336404     0.36100
C225        C  0.06678147  0.20601962  0.08223752    -0.21400
C226        C  0.04005364  0.18157292  0.08228471    -0.21400
C227        C  0.06390698  0.21032211  0.95664975    -0.21300
C228        C  0.03744287  0.18572762  0.95664362    -0.21300
C229        C  0.14338675  0.26044020  0.02968441    -0.22400
C230        C  0.14067439  0.26367689  0.00895864    -0.22400
C231        C  0.47783466  0.11206083  0.03005437    -0.22400
C232        C  0.47522236  0.11497822  0.00928625    -0.22400
C233        C  0.10764270  0.23055499  0.05629912    -0.17800
C234        C  0.01217615  0.14339196  0.05649597    -0.17800
C235        C  0.00419723  0.15240711  0.98305510    -0.17800
C236        C  0.09974421  0.23991962  0.98302232    -0.17800
H237        H  0.07580399  0.22050878  0.09534642     0.15200
H238        H  0.02455484  0.17381194  0.09540309     0.15200
H239        H  0.07621620  0.22131326  0.94319177     0.15200
H240        H  0.02593138  0.17444564  0.94314140     0.15200
H241        H  0.16308629  0.27296749  0.03911317     0.13400
H242        H  0.15808516  0.27892243  0.99925064     0.13400
H243        H  0.46309486  0.09394384  0.03957806     0.13400
H244        H  0.45824515  0.09936637  0.99965734     0.13400
H245        H  0.06615629  0.18029281  0.03544631     0.26700
H246        H  0.05068408  0.19732191  0.00459009     0.26700
N247        N  0.05825316  0.18514335  0.48464112    -0.36100
N248        N  0.09606567  0.14455145  0.51529280    -0.56600
N249        N  0.05836638  0.18374089  0.54668792    -0.36100
N250        N  0.01696355  0.22095580  0.51613583    -0.56600
C251        C  0.07426875  0.16092265  0.47277205     0.27500
C252        C  0.03352437  0.20155688  0.47321503     0.27500
C253        C  0.07501284  0.15922068  0.55813655     0.27500
C254        C  0.03369841  0.19924370  0.55856276     0.27500
C255        C  0.11360508  0.13304509  0.49873279     0.36100
C256        C  0.11412570  0.13272498  0.53162074     0.36100
C257        C  0.00661465  0.23996172  0.49982218     0.36100
C258        C  0.00636159  0.23894474  0.53270682     0.36100
C259        C  0.05970585  0.16221813  0.45345552    -0.21400
C260        C  0.03402376  0.18779794  0.45373663    -0.21400
C261        C  0.06089329  0.15936332  0.57761487    -0.21300
C262        C  0.03490237  0.18454629  0.57788003    -0.21300
C263        C  0.14259517  0.11309079  0.50456092    -0.22400
C264        C  0.14294537  0.11292361  0.52543693    -0.22400
C265        C  0.48864759  0.26983272  0.50603925    -0.22400
C266        C  0.48851038  0.26919311  0.52691956    -0.22400
C267        C  0.10293692  0.13903097  0.47847377    -0.17800
C268        C  0.01213707  0.23013718  0.47942028    -0.17800
C269        C  0.01181959  0.22789084  0.55294533    -0.17800
C270        C  0.10407068  0.13827009  0.55199720    -0.17800
H271        H  0.06705667  0.14664289  0.44040301     0.15200
H272        H  0.01786913  0.19564795  0.44093940     0.15200
H273        H  0.06873463  0.14334026  0.59046535     0.15200
H274        H  0.01908272  0.19151460  0.59096333     0.15200
H275        H  0.16136397  0.09984095  0.49480617     0.13400
H276        H  0.16199386  0.09947662  0.53496192     0.13400
H277        H  0.47699491  0.29002750  0.49652816     0.13400
H278        H  0.47677028  0.28878580  0.53670886     0.13400
H279        H  0.06526898  0.19174339  0.49928787     0.26700
H280        H  0.06512711  0.19110811  0.53206511     0.26700
N281        N  0.32269820  0.44769375  0.98449433    -0.36100
N282        N  0.35494195  0.40280224  0.01564494    -0.56600
N283        N  0.31458717  0.44056032  0.04636266    -0.36100
N284        N  0.27959910  0.48270476  0.01540926    -0.56600
C285        C  0.33872160  0.42289992  0.97295968     0.27500
C286        C  0.29794160  0.46370282  0.97276167     0.27500
C287        C  0.32874118  0.41461005  0.05788916     0.27500
C288        C  0.29003786  0.45715303  0.05781149     0.27500
C289        C  0.37436231  0.39219670  0.99959213     0.36100
C290        C  0.37002414  0.38849965  0.03232609     0.36100
C291        C  0.26913093  0.50146251  0.99903569     0.36100
C292        C  0.26682176  0.49945232  0.03191350     0.36100
C293        C  0.32450475  0.42370257  0.95357186    -0.21400
C294        C  0.29885413  0.44932613  0.95344674    -0.21400
C295        C  0.31288439  0.41475296  0.07692843    -0.21300
C296        C  0.28854827  0.44148417  0.07686941    -0.21300
C297        C  0.40163204  0.37046751  0.00604505    -0.22400
C298        C  0.39886938  0.36812128  0.02682945    -0.22400
C299        C  0.24922616  0.03030023  0.00513250    -0.22400
C300        C  0.24788710  0.02916182  0.02600450    -0.22400
C301        C  0.36637921  0.40001475  0.97914531    -0.17800
C302        C  0.27519096  0.49159952  0.97867831    -0.17800
C303        C  0.27052491  0.48742731  0.05212070    -0.17800
C304        C  0.35727285  0.39245687  0.05233919    -0.17800
H305        H  0.33162801  0.40728446  0.94082658     0.15200
H306        H  0.28264536  0.45641307  0.94053464     0.15200
H307        H  0.31859826  0.39787445  0.08978036     0.15200
H308        H  0.27208890  0.44884866  0.08961581     0.15200
H309        H  0.42115198  0.35731638  0.99673772     0.13400
H310        H  0.41585076  0.35283839  0.03672374     0.13400
H311        H  0.23652807  0.04971626  0.99552535     0.13400
H312        H  0.23391943  0.04746359  0.03566936     0.13400
H313        H  0.32940857  0.45432369  0.99922682     0.26700
H314        H  0.32294356  0.44809227  0.03204813     0.26700
C315        C  0.43940043  0.31457414  0.85518974     0.03700
C316        C  0.41834742  0.28997157  0.84476680    -0.12500
C317        C  0.41862901  0.28878639  0.82344249     0.01200
C318        C  0.44081991  0.31164589  0.81253837    -0.11000
C319        C  0.46301665  0.33528891  0.82267007     0.03700
C320        C  0.46247412  0.33634329  0.84395705    -0.10400
H321        H  0.39998453  0.27337584  0.85300216     0.09300
H322        H  0.44049025  0.31125135  0.79608436     0.06800
H323        H  0.47855382  0.35566114  0.85170648     0.06600
C324        C  0.44786137  0.08126245  0.85371335     0.03700
C325        C  0.46787298  0.05554162  0.84342861    -0.12500
C326        C  0.46199496  0.04905368  0.82271134     0.01200
C327        C  0.43626960  0.06852216  0.81234507    -0.11000
C328        C  0.41647993  0.09430585  0.82224224     0.03700
C329        C  0.42251133  0.10077484  0.84285748    -0.10400
H330        H  0.48775230  0.04042276  0.85140985     0.09300
H331        H  0.43198337  0.06399440  0.79635010     0.06800
H332        H  0.40687835  0.12054734  0.85055167     0.06600
C333        C  0.18552845  0.07133886  0.85640957     0.03700
C334        C  0.20576411  0.09506325  0.84458657    -0.12500
C335        C  0.20404685  0.09469269  0.82330920     0.01200
C336        C  0.18070311  0.07148082  0.81375630    -0.11000
C337        C  0.15892863  0.04895576  0.82516503     0.03700
C338        C  0.16123592  0.04910637  0.84649842    -0.10400
H339        H  0.22457777  0.11247561  0.85167339     0.09300
H340        H  0.17961227  0.07073293  0.79731947     0.06800
H341        H  0.14572252  0.03044095  0.85525378     0.06600
C342        C  0.17100413  0.30163020  0.85402284     0.03700
C343        C  0.19604664  0.28197579  0.84316521    -0.12500
C344        C  0.20268452  0.28883184  0.82254817     0.01200
C345        C  0.18377153  0.31570852  0.81262197    -0.11000
C346        C  0.15781443  0.33495388  0.82311490     0.03700
C347        C  0.15169630  0.32773115  0.84376753    -0.10400
H348        H  0.21107172  0.26176114  0.85081110     0.09300
H349        H  0.18879786  0.32120414  0.79671155     0.06800
H350        H  0.13233087  0.34299647  0.85204149     0.06600
C351        C  0.17139629  0.08203943  0.68191928     0.03700
C352        C  0.19622612  0.10346610  0.69178022    -0.12500
C353        C  0.20234195  0.09968330  0.71267720     0.01200
C354        C  0.18325061  0.07451179  0.72381217    -0.11000
C355        C  0.15779854  0.05349431  0.71434433     0.03700
C356        C  0.15186611  0.05746968  0.69344719    -0.10400
H357        H  0.21148166  0.12240888  0.68308566     0.09300
H358        H  0.18804268  0.07155664  0.73994160     0.06800
H359        H  0.13233765  0.04094570  0.68627073     0.06600
C360        C  0.43610214  0.06889315  0.68012220     0.03700
C361        C  0.41493998  0.09285139  0.69084825    -0.12500
C362        C  0.41539411  0.09364243  0.71214548     0.01200
C363        C  0.43759911  0.07038553  0.72281098    -0.11000
C364        C  0.46033762  0.04758786  0.71230553     0.03700
C365        C  0.45961577  0.04714639  0.69099944    -0.10400
H366        H  0.39666008  0.10963902  0.68265092     0.09300
H367        H  0.43749025  0.07032509  0.73927069     0.06800
H368        H  0.47589723  0.02824891  0.68310854     0.06600
C369        C  0.39302122  0.26671334  0.81239130     0.43000
N370        N  0.35072194  0.25418467  0.79197979     0.01900
C371        C  0.24480708  0.10573275  0.79162322    -0.06000
H372        H  0.37740711  0.08073276  0.78244829     0.07400
C373        C  0.37480792  0.14972574  0.71609052    -0.06300
Co374      Co  0.31053086  0.19020368  0.80504196     0.74200
N375        N  0.34764448  0.12764975  0.78867323    -0.25500
Co376      Co  0.30980723  0.12983016  0.76593749     0.74100
C377        C  0.39071752  0.11681476  0.72320160     0.43100
N378        N  0.35092608  0.23574493  0.73177008     0.01500
N379        N  0.34904800  0.13166451  0.74358938     0.01600
N380        N  0.24716950  0.14424104  0.81766130    -0.46400
H381        H  0.38041934  0.21886985  0.83282928     0.07400
N382        N  0.34813515  0.15045178  0.80369647     0.01900
N383        N  0.27180646  0.13326499  0.74328756     0.01600
C384        C  0.22976820  0.12056008  0.72289773     0.43200
N385        N  0.35088744  0.25845417  0.74685883    -0.25000
C386        C  0.24654624  0.23553798  0.81862208    -0.05900
N387        N  0.37608725  0.27741659  0.79541995    -0.46100
N388        N  0.24654850  0.10998509  0.73990524    -0.46300
C389        C  0.23004464  0.26827125  0.81179034     0.43000
N390        N  0.27129193  0.15156956  0.80360348     0.01900
N391        N  0.27390587  0.25925286  0.74682420    -0.25000
N392        N  0.34975092  0.22886090  0.80576147    -0.25500
N393        N  0.27383139  0.23682651  0.73159201     0.01500
H394        H  0.24246952  0.30487988  0.75369842     0.07400
H395        H  0.24210547  0.16850597  0.70243239     0.07400
N396        N  0.27084895  0.12905283  0.78842407    -0.25500
N397        N  0.34944569  0.15691203  0.72973681    -0.25100
N398        N  0.27312545  0.25563380  0.79187992     0.01900
C399        C  0.38905188  0.11370407  0.81097689     0.43300
C400        C  0.37714079  0.28157073  0.74394529    -0.06400
N401        N  0.27278489  0.15849673  0.72945859    -0.25100
H402        H  0.38048334  0.16494925  0.70254770     0.07400
N403        N  0.37235097  0.14289785  0.81755566    -0.46400
H404        H  0.38264226  0.30392239  0.75351889     0.07400
C405        C  0.23148436  0.27245427  0.72495414     0.43100
C406        C  0.37542617  0.23460788  0.81940805    -0.05900
Co407      Co  0.31218203  0.25758479  0.76942002     0.73800
N408        N  0.37596633  0.24246328  0.71814853    -0.46100
C409        C  0.22905593  0.11589370  0.81098925     0.43400
N410        N  0.24801186  0.27930177  0.79517900    -0.46100
Co411      Co  0.31180302  0.19708346  0.73017021     0.73900
C412        C  0.24716760  0.15270534  0.71581845    -0.06400
C413        C  0.37267829  0.10347111  0.79186511    -0.06000
N414        N  0.27283671  0.22992876  0.80541588    -0.25500
N415        N  0.37317768  0.10710977  0.74019384    -0.46300
H416        H  0.23933526  0.08306447  0.78228445     0.07400
C417        C  0.24788892  0.28256814  0.74406083    -0.06400
Cl418      Cl  0.31111842  0.19367079  0.76763926    -0.49400
C419        C  0.39378755  0.27092623  0.72492167     0.43100
H420        H  0.24040498  0.21903523  0.83158210     0.07400
N421        N  0.24916640  0.24413239  0.71790527    -0.46100
C422        C  0.45557078  0.30097014  0.68258201     0.03700
C423        C  0.47539351  0.32661301  0.69287857    -0.12500
C424        C  0.46885940  0.33407882  0.71334581     0.01200
C425        C  0.44227380  0.31553285  0.72369633    -0.11000
C426        C  0.42235741  0.28953319  0.71382624     0.03700
C427        C  0.42922648  0.28230938  0.69326448    -0.10400
H428        H  0.49519526  0.34176546  0.68487188     0.09300
H429        H  0.43730056  0.32133261  0.73951962     0.06800
H430        H  0.41372116  0.26254890  0.68550747     0.06600
C431        C  0.18393290  0.31817484  0.68158561     0.03700
C432        C  0.16099940  0.34017422  0.69256363    -0.12500
C433        C  0.16074033  0.33948247  0.71383612     0.01200
C434        C  0.18276300  0.31593611  0.72417271    -0.11000
C435        C  0.20531012  0.29334340  0.71354553     0.03700
C436        C  0.20545915  0.29407545  0.69223089    -0.10400
H437        H  0.14488645  0.35935157  0.68460089     0.09300
H438        H  0.18285624  0.31569780  0.74062223     0.06800
H439        H  0.22423800  0.27781641  0.68416827     0.06600
C440        C  0.13732648  0.36293450  0.81278688     0.43000
N441        N  0.12397750  0.40558783  0.79275931     0.01900
C442        C  0.47137157  0.00527812  0.79253782    -0.06000
H443        H  0.45099332  0.37200563  0.78218632     0.07400
C444        C  0.02099008  0.38000693  0.71680291    -0.06300
Co445      Co  0.05824459  0.44274931  0.80598402     0.74200
N446        N  0.99669550  0.40373085  0.78893562    -0.25500
Co447      Co  0.49717226  0.44261024  0.76658776     0.74100
C448        C  0.48877999  0.36222561  0.72369014     0.43100
N449        N  0.10472583  0.40752505  0.73242590     0.01500
N450        N  0.00045311  0.40474008  0.74386914     0.01600
N451        N  0.01083109  0.00463722  0.81839619    -0.46400
H452        H  0.08820125  0.37305334  0.83278913     0.07400
N453        N  0.01929770  0.40386159  0.80418650     0.01900
N454        N  0.49857628  0.48174394  0.74419503     0.01600
C455        C  0.48328318  0.02267617  0.72349673     0.43200
N456        N  0.12749055  0.40732631  0.74759939    -0.25000
C457        C  0.10414137  0.00593061  0.82125820    -0.05900
N458        N  0.14798826  0.38077582  0.79605866    -0.46100
N459        N  0.47359290  0.00540340  0.74059764    -0.46300
C460        C  0.13675170  0.02302913  0.81442356     0.43000
N461        N  0.01831895  0.48045103  0.80454779     0.01900
N462        N  0.12621971  0.48386488  0.74807346    -0.25000
N463        N  0.09829279  0.40516533  0.80636544    -0.25500
N464        N  0.10318830  0.48397864  0.73301867     0.01500
H465        H  0.17212046  0.01536441  0.75455500     0.07400
H466        H  0.03179676  0.01253977  0.70306432     0.07400
N467        N  0.49544806  0.48019107  0.78941758    -0.25500
N468        N  0.02606931  0.40585598  0.73024659    -0.25100
N469        N  0.12274843  0.48258754  0.79330272     0.01900
C470        C  0.98389192  0.36121503  0.81092325     0.43300
C471        C  0.15103177  0.38160883  0.74457682    -0.06400
N472        N  0.02400508  0.48218710  0.73043362    -0.25100
H473        H  0.03743837  0.37490478  0.70369399     0.07400
N474        N  0.01217672  0.37921189  0.81793259    -0.46400
H475        H  0.17362669  0.37598063  0.75410684     0.07400
C476        C  0.13839319  0.02651629  0.72610884     0.43100
C477        C  0.10441755  0.37916512  0.81969254    -0.05900
Co478      Co  0.12578648  0.44486788  0.77044752     0.73800
N479        N  0.11190985  0.38336848  0.71858191    -0.46100
C480        C  0.48162220  0.02151989  0.81167973     0.43400
N481        N  0.14678118  0.00698282  0.79710870    -0.46100
Co482      Co  0.06459474  0.44496705  0.73111275     0.73900
C483        C  0.01653268  0.00703296  0.71662311    -0.06400
C484        C  0.47355495  0.37748105  0.79173860    -0.06000
N485        N  0.09743122  0.48140691  0.80712401    -0.25500
N486        N  0.47750360  0.37910696  0.74048459    -0.46300
H487        H  0.44866459  0.01020577  0.78297798     0.07400
C488        C  0.14937591  0.00997934  0.74513205    -0.06400
Cl489      Cl  0.06146750  0.44389519  0.76853602    -0.49400
C490        C  0.14053474  0.36572169  0.72541110     0.41100
H491        H  0.08876604  0.01036843  0.83487101     0.07400
N492        N  0.10975461  0.00879884  0.71940311    -0.46100
C493        C  0.24384252  0.04368879  0.93836669     0.30300
C494        C  0.24655152  0.06887797  0.92280894    -0.36000
C495        C  0.22131675  0.06663144  0.90727481     0.16300
C496        C  0.19506967  0.04146516  0.90700290     0.22100
C497        C  0.19158686  0.01696160  0.92295286    -0.34100
C498        C  0.21697705  0.01905155  0.93846615     0.16200
O499        O  0.26717725  0.03823829  0.95293606    -0.26200
C500        C  0.25484213  0.50997292  0.96259381     0.06000
C501        C  0.22353891  0.49705886  0.95443704    -0.31000
O502        O  0.17763135  0.04112640  0.88961460    -0.22900
C503        C  0.19276607  0.06655712  0.87854779    -0.02900
C504        C  0.21981330  0.08357215  0.88908478    -0.17300
H505        H  0.26820424  0.08749771  0.92216654     0.20700
H506        H  0.17165939  0.49629337  0.92271854     0.19100
H507        H  0.20933368  0.47345816  0.95878259     0.19000
H508        H  0.23802864  0.10352513  0.88376789     0.14900
C509        C  0.39581047  0.34546516  0.93983684     0.30300
C510        C  0.39231507  0.31822305  0.92564995    -0.36000
C511        C  0.41269462  0.32151717  0.90788838     0.16300
C512        C  0.43536384  0.34937215  0.90451908     0.22100
C513        C  0.43946721  0.37616692  0.91887744    -0.34100
C514        C  0.41870060  0.37321787  0.93645165     0.16200
O515        O  0.37579368  0.35019654  0.95602647    -0.26200
C516        C  0.38612717  0.38125958  0.96309607     0.06000
C517        C  0.41279647  0.39675919  0.95158874    -0.31000
O518        O  0.44884758  0.34936678  0.88606987    -0.22900
C519        C  0.43473392  0.32118457  0.87728548    -0.02900
C520        C  0.41214600  0.30265181  0.89033127    -0.17300
H521        H  0.37332780  0.29717770  0.92771298     0.20700
H522        H  0.45597474  0.39891433  0.91594464     0.19100
H523        H  0.42410621  0.42274425  0.95326098     0.19000
H524        H  0.39588402  0.27994202  0.88713989     0.14900
C525        C  0.13294819  0.09278239  0.59484015     0.30300
C526        C  0.12786251  0.07006135  0.61139826    -0.36000
C527        C  0.14659730  0.07835253  0.62905252     0.16300
C528        C  0.16907955  0.10681155  0.63034700     0.22100
C529        C  0.17486677  0.12910842  0.61362761    -0.34100
C530        C  0.15591814  0.12098062  0.59597394     0.16200
O531        O  0.11384345  0.09324619  0.57813619    -0.26200
C532        C  0.12506027  0.12178189  0.56831316     0.06000
C533        C  0.15133376  0.13994759  0.57861530    -0.31000
O534        O  0.18122645  0.11144382  0.64889008    -0.22900
C535        C  0.16627528  0.08564009  0.65967926    -0.02900
C536        C  0.14467696  0.06406988  0.64794916    -0.17300
H537        H  0.10884161  0.04878546  0.61097830     0.20700
H538        H  0.19129709  0.15235307  0.61468253     0.19100
H539        H  0.16230988  0.16550897  0.57493237     0.19000
H540        H  0.12873794  0.04179013  0.65255916     0.14900
C541        C  0.45486561  0.27448797  0.63129013     0.30300
C542        C  0.44334457  0.25556706  0.61425745    -0.36000
C543        C  0.46517439  0.25753887  0.59698547     0.16300
C544        C  0.49612859  0.27685477  0.59657023     0.22100
C545        C  0.50718659  0.29625235  0.61340844    -0.34100
C546        C  0.48552384  0.29410096  0.63061984     0.16200
O547        O  0.44016782  0.27434212  0.64950349    -0.26200
C548        C  0.46168988  0.29422890  0.66064645     0.06000
C549        C  0.49037978  0.30714648  0.64953019    -0.31000
O550        O  0.01504461  0.27116885  0.58011846    -0.22900
C551        C  0.99586583  0.24831489  0.56964382    -0.02900
C552        C  0.46442199  0.23899330  0.57931563    -0.17300
H553        H  0.41999843  0.23908866  0.61476294     0.20700
H554        H  0.03201479  0.31045423  0.61346566     0.19100
H555        H  0.51251283  0.32282903  0.65458482     0.19000
H556        H  0.44585689  0.21869774  0.57499572     0.14900
C557        C  0.15049076  0.26333118  0.94084636     0.30300
C558        C  0.17329240  0.25545503  0.92469276    -0.36000
C559        C  0.16800627  0.27477051  0.90678099     0.16300
C560        C  0.14246852  0.30046068  0.90495326     0.22100
C561        C  0.12021391  0.30898304  0.92125999    -0.34100
C562        C  0.12516846  0.28937545  0.93912266     0.16200
O563        O  0.14683850  0.24451838  0.95757234    -0.26200
C564        C  0.11906666  0.25883336  0.96676666     0.06000
C565        C  0.10469219  0.28705634  0.95609467    -0.31000
O566        O  0.14039216  0.31330252  0.88637423    -0.22900
C567        C  0.16491649  0.29564039  0.87605376    -0.02900
C568        C  0.18298573  0.27130119  0.88812889    -0.17300
H569        H  0.19223597  0.23415505  0.92558533     0.20700
H570        H  0.09912496  0.32806742  0.91973262     0.19100
H571        H  0.08029163  0.30092240  0.95922805     0.19000
H572        H  0.20352342  0.25292440  0.88392894     0.14900
C573        C  0.44815337  0.11371884  0.90365278     0.30300
C574        C  0.44124248  0.13828488  0.91896134    -0.36000
C575        C  0.45697547  0.13148484  0.93783347     0.16300
C576        C  0.47816027  0.10250916  0.94138812     0.22100
C577        C  0.48434034  0.07749824  0.92618370    -0.34100
C578        C  0.46877161  0.08445042  0.90727011     0.16200
O579        O  0.43817507  0.11625635  0.88455736    -0.26200
C580        C  0.45258255  0.08827667  0.87568190     0.06000
C581        C  0.47188434  0.06745849  0.88919586    -0.31000
O582        O  0.99494762  0.10438437  0.95888406    -0.22900
C583        C  0.48412825  0.13472751  0.96672289    -0.02900
C584        C  0.46004946  0.15243565  0.95441675    -0.17300
H585        H  0.42624637  0.16203052  0.91604316     0.20700
H586        H  0.00187226  0.05535287  0.92855543     0.19100
H587        H  0.48649734  0.04356351  0.88624619     0.19000
H588        H  0.45008571  0.17892918  0.95624339     0.14900
C589        C  0.40209575  0.06222815  0.63068030     0.30300
C590        C  0.37511877  0.06406691  0.61610896    -0.36000
C591        C  0.37946075  0.04263100  0.59903019     0.16300
C592        C  0.40842827  0.52113316  0.59642197     0.22100
C593        C  0.43574288  0.51991410  0.61076288    -0.34100
C594        C  0.43130315  0.04105569  0.62789788     0.16200
O595        O  0.40117421  0.07633327  0.64890294    -0.26200
C596        C  0.43011320  0.06403395  0.65803552     0.06000
C597        C  0.45009574  0.04225752  0.64546224    -0.31000
O598        O  0.40516998  0.50026886  0.58063294    -0.22900
C599        C  0.37375290  0.50869657  0.57302473    -0.02900
C600        C  0.35659540  0.03489842  0.58375431    -0.17300
H601        H  0.35137142  0.07940286  0.61852921     0.20700
H602        H  0.45783630  0.50199467  0.60928032     0.19100
H603        H  0.47370843  0.02741142  0.64900561     0.19000
H604        H  0.33002281  0.04477527  0.58151635     0.14900
C605        C  0.23063236  0.34425458  0.59709133     0.30300
C606        C  0.22953386  0.31634465  0.61110423    -0.36000
C607        C  0.21006527  0.32235701  0.62889845     0.16300
C608        C  0.19244747  0.35348008  0.63250549     0.22100
C609        C  0.19297920  0.38115129  0.61835181    -0.34100
C610        C  0.21286652  0.37535246  0.60071689     0.16200
O611        O  0.25078473  0.34595001  0.58074561    -0.26200
C612        C  0.24571962  0.37847485  0.57382793     0.06000
C613        C  0.22237986  0.39795035  0.58560082    -0.31000
O614        O  0.17933809  0.35501565  0.65100701    -0.22900
C615        C  0.18873678  0.32458081  0.65953116    -0.02900
C616        C  0.20764125  0.30302212  0.64631286    -0.17300
H617        H  0.24463583  0.29248527  0.60887318     0.20700
H618        H  0.18060986  0.40624002  0.62145198     0.19100
H619        H  0.21558637  0.42549482  0.58403674     0.19000
H620        H  0.21983012  0.27780228  0.64935627     0.14900
C621        C  0.22183937  0.01343361  0.09454928     0.30300
C622        C  0.19710463  0.00756929  0.11009653    -0.36000
C623        C  0.20451160  0.02348923  0.12876260     0.16300
C624        C  0.23393244  0.04417616  0.13191503     0.22100
C625        C  0.25828558  0.05074077  0.11622761    -0.34100
C626        C  0.25110520  0.03451024  0.09758783     0.16200
O627        O  0.22308878  0.99660170  0.07710629    -0.26200
C628        C  0.25337136  0.50721917  0.06871267     0.06000
C629        C  0.27191986  0.53078337  0.08076725    -0.31000
O630        O  0.23714465  0.05394203  0.15102445    -0.22900
C631        C  0.20948418  0.03918660  0.16033633    -0.02900
C632        C  0.18814327  0.02014034  0.14705622    -0.17300
H633        H  0.17486956  0.98995550  0.10817279     0.20700
H634        H  0.28222773  0.06572525  0.11872148     0.19100
H635        H  0.29855683  0.54052376  0.07848913     0.19000
H636        H  0.16445687  0.00514082  0.15026962     0.14900
C637        C  0.13245948  0.08730580  0.43799066     0.30300
C638        C  0.12968283  0.06086634  0.42331199    -0.36000
C639        C  0.15225042  0.06411528  0.40648671     0.16300
C640        C  0.17602852  0.09138429  0.40428822     0.22100
C641        C  0.17926527  0.11753107  0.41912692    -0.34100
C642        C  0.15657992  0.11439815  0.43591031     0.16200
O643        O  0.11145528  0.09139892  0.45380447    -0.26200
C644        C  0.12253853  0.12127244  0.46204608     0.06000
C645        C  0.15050449  0.13677084  0.45159854    -0.31000
O646        O  0.19186491  0.09124545  0.38645359    -0.22900
C647        C  0.17816007  0.06350616  0.37698265    -0.02900
C648        C  0.15353511  0.04544791  0.38893182    -0.17300
H649        H  0.11004952  0.04020819  0.42442753     0.20700
H650        H  0.19695147  0.13971297  0.41722467     0.19100
H651        H  0.16289178  0.16193965  0.45443962     0.19000
H652        H  0.13721574  0.02314077  0.38501018     0.14900
C653        C  0.39649945  0.04467893  0.40496752     0.30300
C654        C  0.37267513  0.04923621  0.42109546    -0.36000
C655        C  0.38078913  0.03120003  0.43913005     0.16300
C656        C  0.41049591  0.01033350  0.44123447     0.22100
C657        C  0.43480528  0.00661713  0.42529312    -0.34100
C658        C  0.42640635  0.02426959  0.40719059     0.16200
O659        O  0.39209777  0.05588321  0.38614562    -0.26200
C660        C  0.41947915  0.04237969  0.37607398     0.06000
C661        C  0.44185692  0.02270832  0.38857763    -0.31000
O662        O  0.41009516  0.49145874  0.45816744    -0.22900
C663        C  0.38001696  0.50084305  0.46711680    -0.02900
C664        C  0.36083533  0.52550450  0.45605468    -0.17300
H665        H  0.34833596  0.06391077  0.41928893     0.20700
H666        H  0.45735431  0.98917770  0.42644492     0.19100
H667        H  0.46543829  0.00816929  0.38461668     0.19000
H668        H  0.33429425  0.53488815  0.45901527     0.14900
C669        C  0.13712891  0.28296053  0.09642939     0.30300
C670        C  0.13345479  0.30873652  0.11140062    -0.36000
C671        C  0.15701964  0.30653739  0.12775079     0.16300
C672        C  0.18257558  0.28081566  0.12931734     0.22100
C673        C  0.18687917  0.25546068  0.11404298    -0.34100
C674        C  0.16310099  0.25749934  0.09770343     0.16200
O675        O  0.11528823  0.27778904  0.08117209    -0.26200
C676        C  0.12755918  0.24884226  0.07241309     0.06000
C677        C  0.15727895  0.23501940  0.08198123    -0.31000
O678        O  0.19816516  0.28070615  0.14724741    -0.22900
C679        C  0.18244233  0.30672194  0.15737314    -0.02900
C680        C  0.15699381  0.32403726  0.14567607    -0.17300
H681        H  0.11222737  0.32783360  0.11097752     0.20700
H682        H  0.20588262  0.23429587  0.11544390     0.19100
H683        H  0.17100880  0.21075132  0.07862070     0.19000
H684        H  0.13863829  0.34441674  0.15009244     0.14900
C685        C  0.46035937  0.10942850  0.09636717     0.30300
C686        C  0.43284076  0.10976376  0.11072807    -0.36000
C687        C  0.43748972  0.08806607  0.12784530     0.16300
C688        C  0.46698757  0.06724200  0.13054983     0.22100
C689        C  0.49417697  0.06641049  0.11604409    -0.34100
C690        C  0.48974311  0.08834507  0.09906238     0.16200
O691        O  0.46338293  0.13044645  0.08042318    -0.26200
C692        C  0.49500091  0.12248899  0.07279791     0.06000
C693        C  0.01257714  0.09655014  0.08376685    -0.31000
O694        O  0.46792261  0.05231744  0.14864641    -0.22900
C695        C  0.43870107  0.06368041  0.15785004    -0.02900
C696        C  0.41849273  0.08572156  0.14539745    -0.17300
H697        H  0.41037160  0.12722766  0.10923762     0.20700
H698        H  0.01809009  0.05128762  0.11841313     0.19100
H699        H  0.03921899  0.08687877  0.08150331     0.19000
H700        H  0.39461820  0.10004861  0.14903532     0.14900
C701        C  0.22783197  0.36637692  0.44079133     0.30300
C702        C  0.20684604  0.37634736  0.42418197    -0.36000
C703        C  0.21011978  0.35571111  0.40669206     0.16300
C704        C  0.23230611  0.32703728  0.40558818     0.22100
C705        C  0.25296490  0.31668150  0.42234592    -0.34100
C706        C  0.24981522  0.33743595  0.43987590     0.16200
O707        O  0.23240172  0.38480632  0.45747515    -0.26200
C708        C  0.25731289  0.36735536  0.46759841     0.06000
C709        C  0.26902487  0.33748063  0.45743219    -0.31000
O710        O  0.23272742  0.31286952  0.38729873    -0.22900
C711        C  0.21045042  0.33268365  0.37644471    -0.02900
C712        C  0.19564277  0.35977773  0.38791606    -0.17300
H713        H  0.19043688  0.39966952  0.42452697     0.20700
H714        H  0.27136982  0.29493301  0.42147856     0.19100
H715        H  0.29111792  0.32067740  0.46135510     0.19000
H716        H  0.17755797  0.38026979  0.38320607     0.14900
C717        C  0.39530217  0.33116534  0.13098789     0.30300
C718        C  0.37573246  0.32197192  0.11373907    -0.36000
C719        C  0.38092177  0.34316672  0.09649979     0.16300
C720        C  0.40367847  0.37159913  0.09631739     0.22100
C721        C  0.42373812  0.38035915  0.11343791    -0.34100
C722        C  0.41852048  0.35913431  0.13064236     0.16200
O723        O  0.39264106  0.31655447  0.14912049    -0.26200
C724        C  0.41450385  0.33530265  0.16063980     0.06000
C725        C  0.43143029  0.36215442  0.14979227    -0.31000
O726        O  0.40055852  0.39086942  0.07975464    -0.22900
C727        C  0.37590256  0.37435438  0.06905321    -0.02900
C728        C  0.36293897  0.34429117  0.07861619    -0.17300
H729        H  0.35653261  0.30084408  0.11404241     0.20700
H730        H  0.44074337  0.40327259  0.11367410     0.19100
H731        H  0.44967432  0.38194737  0.15513362     0.19000
H732        H  0.34066019  0.32823200  0.07413143     0.14900
C733        C  0.46813643  0.30177677  0.40424260     0.30300
C734        C  0.99480531  0.30420292  0.41894740    -0.36000
C735        C  0.99005860  0.28346776  0.43640056     0.16300
C736        C  0.46094587  0.26200326  0.43924684     0.22100
C737        C  0.43405780  0.26003901  0.42467287    -0.34100
C738        C  0.43895716  0.28054355  0.40715317     0.16200
O739        O  0.46907785  0.31580750  0.38593193    -0.26200
C740        C  0.44017690  0.30340234  0.37687895     0.06000
C741        C  0.42026191  0.28151160  0.38953136    -0.31000
O742        O  0.46378014  0.24191354  0.45552520    -0.22900
C743        C  0.99489658  0.25090920  0.46328126    -0.02900
C744        C  0.01246229  0.27658319  0.45205794    -0.17300
H745        H  0.01850354  0.31964601  0.41645836     0.20700
H746        H  0.41187716  0.24223889  0.42635973     0.19100
H747        H  0.39656783  0.26679067  0.38605460     0.19000
H748        H  0.03899766  0.28654979  0.45427703     0.14900
C749        C  0.43403854  0.80890000  0.35489098     0.03700
C750        C  0.41115455  0.78693703  0.34378790    -0.12500
C751        C  0.41057659  0.78847285  0.32247700     0.01200
C752        C  0.43252210  0.81255682  0.31231063    -0.11000
C753        C  0.45422234  0.83557482  0.32321608     0.03700
C754        C  0.45460979  0.83389022  0.34444649    -0.10400
H755        H  0.39550424  0.76707819  0.35145938     0.09300
H756        H  0.43287875  0.81333029  0.29585584     0.06800
H757        H  0.47262776  0.85060999  0.35278245     0.06600
C758        C  0.41884260  0.82815780  0.18272273     0.03700
C759        C  0.44405471  0.84646078  0.19423244    -0.12500
C760        C  0.44912104  0.83866526  0.21484096     0.01200
C761        C  0.42857504  0.81237206  0.22409846    -0.11000
C762        C  0.40300392  0.79396507  0.21296150     0.03700
C763        C  0.39812070  0.80211936  0.19230678    -0.10400
H764        H  0.46058162  0.86623503  0.18715450     0.09300
H765        H  0.43241130  0.80621006  0.24001776     0.06800
H766        H  0.37878494  0.78764453  0.18357543     0.06600
C767        C  0.20338074  0.82637868  0.35447660     0.03700
C768        C  0.22185680  0.79974994  0.34415985    -0.12500
C769        C  0.21486897  0.79238902  0.32359634     0.01200
C770        C  0.18876028  0.81187994  0.31333878    -0.11000
C771        C  0.17038958  0.83902197  0.32321970     0.03700
C772        C  0.17801999  0.84616262  0.34369943    -0.10400
H773        H  0.24141520  0.78439103  0.35227762     0.09300
H774        H  0.18310182  0.80626679  0.29756105     0.06800
H775        H  0.16337277  0.86656197  0.35133897     0.06600
C776        C  0.43289781  0.55800777  0.18000735     0.03700
C777        C  0.40874774  0.57871679  0.19098120    -0.12500
C778        C  0.40852995  0.57821856  0.21229447     0.01200
C779        C  0.43213744  0.55604659  0.22273256    -0.11000
C780        C  0.45485443  0.53350054  0.21200225     0.03700
C781        C  0.45498501  0.53458755  0.19067989    -0.10400
H782        H  0.39176886  0.59714573  0.18312506     0.09300
H783        H  0.43259070  0.55610449  0.23918982     0.06800
H784        H  0.47372722  0.51851599  0.18241368     0.06600
C785        C  0.47941564  0.85836801  0.31233719     0.43000
N786        N  0.02209228  0.87175659  0.29235809     0.01900
C787        C  0.12529819  0.52155509  0.29121674    -0.06000
H788        H  0.99182487  0.54486714  0.28208988     0.07400
C789        C  0.99630650  0.97786556  0.21606057    -0.06300
Co790      Co  0.06066989  0.93637622  0.30520223     0.74200
N791        N  0.02256208  0.99864025  0.28860769    -0.25500
Co792      Co  0.06069298  0.99725465  0.26587537     0.74100
C793        C  0.98017176  0.51064962  0.22299394     0.43100
N794        N  0.02028828  0.89171422  0.23265836     0.01500
N795        N  0.02162913  0.99564249  0.24356495     0.01600
N796        N  0.12341881  0.98300148  0.31749171    -0.46400
H797        H  0.99042459  0.90625287  0.33275015     0.07400
N798        N  0.02223684  0.97565505  0.30370333     0.01900
N799        N  0.09901046  0.99415181  0.24321112     0.01600
C800        C  0.14224807  0.00605076  0.22328268     0.43200
N801        N  0.02089764  0.86840774  0.24759274    -0.25000
C802        C  0.12531387  0.89170888  0.31908991    -0.05900
N803        N  0.99706073  0.84807999  0.29561450    -0.46100
N804        N  0.12476218  0.51699828  0.23994768    -0.46300
C805        C  0.14254580  0.85933083  0.31241735     0.43000
N806        N  0.09924055  0.97561098  0.30358323     0.01900
N807        N  0.09776465  0.86785014  0.24670393    -0.25000
N808        N  0.02222098  0.89700538  0.30601804    -0.25500
N809        N  0.09723132  0.89047055  0.23143188     0.01500
H810        H  0.12818658  0.82111725  0.25270329     0.07400
H811        H  0.13017505  0.95802203  0.20313250     0.07400
N812        N  0.09945404  0.99819572  0.28829639    -0.25500
N813        N  0.02142993  0.97049252  0.22983292    -0.25100
N814        N  0.09966474  0.87171849  0.29214704     0.01900
C815        C  0.98033489  0.51146662  0.31067467     0.43300
C816        C  0.99432336  0.84552559  0.24496223    -0.06400
N817        N  0.09825184  0.96889366  0.22954659    -0.25100
H818        H  0.99085672  0.96278573  0.20254362     0.07400
N819        N  0.99761851  0.98268723  0.31745939    -0.46400
H820        H  0.98889018  0.82288155  0.25447978     0.07400
C821        C  0.13825144  0.85396855  0.22374689     0.43100
C822        C  0.99621720  0.89068843  0.31945533    -0.05900
Co823      Co  0.06024896  0.86924130  0.26975528     0.73800
N824        N  0.99465401  0.88570807  0.21946620    -0.46100
C825        C  0.14125305  0.01149297  0.31057603     0.43400
N826        N  0.12509875  0.84839320  0.29565932    -0.46100
Co827      Co  0.05923488  0.93032557  0.23042756     0.73900
C828        C  0.12457950  0.97418666  0.21621158    -0.06400
C829        C  0.99688234  0.52214151  0.29159712    -0.06000
N830        N  0.09922577  0.89718841  0.30569834    -0.25500
N831        N  0.99745825  0.52016360  0.24001769    -0.46300
H832        H  0.13063704  0.54424951  0.28171657     0.07400
C833        C  0.12292929  0.84390803  0.24327999    -0.06400
Cl834      Cl  0.06023699  0.93329560  0.26781198    -0.49400
C835        C  0.47694944  0.85712744  0.22631231     0.43100
H836        H  0.13080935  0.90799785  0.33211751     0.07400
N837        N  0.12073885  0.88280798  0.21713257    -0.46100
C838        C  0.18697944  0.81115855  0.17976209     0.03700
C839        C  0.20983998  0.78851782  0.19059019    -0.12500
C840        C  0.20942037  0.78777346  0.21193418     0.01200
C841        C  0.18683137  0.81042904  0.22242358    -0.11000
C842        C  0.16447918  0.83359008  0.21205712     0.03700
C843        C  0.16514056  0.83449436  0.19076097    -0.10400
H844        H  0.22633732  0.76998586  0.18247425     0.09300
H845        H  0.18634862  0.80974027  0.23886052     0.06800
H846        H  0.14697331  0.85185594  0.18299222     0.06600
C847        C  0.42384071  0.54664349  0.35377901     0.03700
C848        C  0.44867589  0.52640001  0.34293034    -0.12500
C849        C  0.45301671  0.53102107  0.32195343     0.01200
C850        C  0.43216636  0.55570584  0.31170727    -0.11000
C851        C  0.40736022  0.57616188  0.32210710     0.03700
C852        C  0.40291494  0.57125872  0.34313459    -0.10400
H853        H  0.96498494  0.50723169  0.35066495     0.09300
H854        H  0.43522360  0.55893192  0.29546983     0.06800
H855        H  0.38391345  0.58723666  0.35126629     0.06600
C856        C  0.18476035  0.55693688  0.35509643     0.03700
C857        C  0.20965597  0.57808913  0.34486969    -0.12500
C858        C  0.21220150  0.57750759  0.32365085     0.01200
C859        C  0.19024624  0.55499492  0.31256265    -0.11000
C860        C  0.16633055  0.53255151  0.32251282     0.03700
C861        C  0.16404590  0.53322198  0.34379528    -0.10400
H862        H  0.22545706  0.59676457  0.35329669     0.09300
H863        H  0.19156109  0.55524574  0.29611878     0.06800
H864        H  0.14442099  0.51695755  0.35124804     0.06600
C865        C  0.20318294  0.54259939  0.18248153     0.03700
C866        C  0.22262419  0.56714572  0.19385683    -0.12500
C867        C  0.21550072  0.57216872  0.21462510     0.01200
C868        C  0.18945890  0.55157323  0.22412826    -0.11000
C869        C  0.17055003  0.52630273  0.21316180     0.03700
C870        C  0.17758216  0.52183752  0.19243100    -0.10400
H871        H  0.24239430  0.58330089  0.18636792     0.09300
H872        H  0.18380186  0.55517837  0.24010963     0.06800
H873        H  0.16252328  0.50262058  0.18406818     0.06600
C874        C  0.23470016  0.76423170  0.31294068     0.43000
N875        N  0.24754170  0.72241715  0.29226311     0.01900
C876        C  0.39848953  0.61997952  0.29165634    -0.06000
H877        H  0.42234454  0.75235290  0.28190408     0.07400
C878        C  0.35066784  0.74777510  0.21590269    -0.06300
Co879      Co  0.31289114  0.68397787  0.30523708     0.74200
N880        N  0.37521302  0.72226045  0.28823429    -0.25500
Co881      Co  0.37384459  0.68391640  0.26580993     0.74100
C882        C  0.38288940  0.76522830  0.22286836     0.43100
N883        N  0.26633714  0.72053858  0.23137851     0.01500
N884        N  0.37080012  0.72225898  0.24299515     0.01600
N885        N  0.35915621  0.62120880  0.31764571    -0.46400
H886        H  0.28393152  0.75270333  0.33249546     0.07400
N887        N  0.35253522  0.72219859  0.30350653     0.01900
N888        N  0.37177942  0.64511845  0.24359219     0.01600
C889        C  0.38571732  0.60304598  0.22350292     0.43200
N890        N  0.24357780  0.72086945  0.24661389    -0.25000
C891        C  0.26695751  0.62027136  0.31995443    -0.05900
N892        N  0.22373959  0.74725429  0.29603853    -0.46100
N893        N  0.39600055  0.62060536  0.24024645    -0.46300
C894        C  0.23460150  0.60323263  0.31287311     0.43000
N895        N  0.35223008  0.64576555  0.30383401     0.01900
N896        N  0.24445778  0.64409776  0.24746106    -0.25000
N897        N  0.27335641  0.72207293  0.30576023    -0.25500
N898        N  0.26765421  0.64400991  0.23244340     0.01500
H899        H  0.19957169  0.61111327  0.25445691     0.07400
H900        H  0.33718907  0.61370772  0.20320705     0.07400
N901        N  0.37509576  0.64582631  0.28865614    -0.25500
N902        N  0.34527436  0.72162860  0.22934686    -0.25100
N903        N  0.24797861  0.64527608  0.29249267     0.01900
C904        C  0.38951638  0.76305082  0.31069722     0.43300
C905        C  0.21952829  0.74597150  0.24314510    -0.06400
N906        N  0.34632444  0.64503368  0.22992477    -0.25100
H907        H  0.33436599  0.75339574  0.20280480     0.07400
N908        N  0.36050808  0.74582476  0.31751924    -0.46400
H909        H  0.19664780  0.75121779  0.25254079     0.07400
C910        C  0.23374149  0.60019908  0.22608539     0.43100
C911        C  0.26758971  0.74746923  0.31939583    -0.05900
Co912      Co  0.24515259  0.68328718  0.26974051     0.73800
N913        N  0.25867810  0.74404210  0.21708066    -0.46100
C914        C  0.38786720  0.60367360  0.31085259     0.43400
N915        N  0.22426241  0.62034228  0.29592325    -0.46100
Co916      Co  0.30633344  0.68282050  0.23035807     0.73900
C917        C  0.35286875  0.61940579  0.21651050    -0.06400
C918        C  0.39937722  0.74742210  0.29132293    -0.06000
N919        N  0.27331061  0.64577865  0.30624621    -0.25500
N920        N  0.39384761  0.74788398  0.23966492    -0.46300
H921        H  0.42105825  0.61457839  0.28205350     0.07400
C922        C  0.22201173  0.61715120  0.24484019    -0.06400
Cl923      Cl  0.30953279  0.68361573  0.26779289    -0.49400
C924        C  0.22965285  0.76134826  0.22361089     0.43100
H925        H  0.28256141  0.61490746  0.33336645     0.07400
N926        N  0.26198335  0.61849223  0.21922295    -0.46100
N927        N  0.31130022  0.94187247  0.55156314    -0.36100
N928        N  0.28068892  0.89449272  0.52105252    -0.56600
N929        N  0.32035938  0.93246249  0.48982895    -0.36100
N930        N  0.35505879  0.97586229  0.52048946    -0.56600
C931        C  0.29434419  0.91842274  0.56366127     0.27500
C932        C  0.33406668  0.96009946  0.56338137     0.27500
C933        C  0.30478780  0.90762871  0.47820890     0.27500
C934        C  0.34346916  0.95038228  0.47794376     0.27500
C935        C  0.26162291  0.88387101  0.53734037     0.36100
C936        C  0.26597064  0.87925629  0.50458351     0.36100
C937        C  0.36534724  0.99520679  0.53655200     0.36100
C938        C  0.36867196  0.99164420  0.50380623     0.36100
C939        C  0.30607249  0.92222245  0.58348952    -0.21400
C940        C  0.33106571  0.94843604  0.58331169    -0.21400
C941        C  0.31834504  0.90981782  0.45863516    -0.21300
C942        C  0.34265363  0.93663176  0.45847877    -0.21300
C943        C  0.23519097  0.86093174  0.53127373    -0.22400
C944        C  0.23794748  0.85801650  0.51052064    -0.22400
C945        C  0.38636652  0.02301796  0.53011128    -0.22400
C946        C  0.38840603  0.02080507  0.50933202    -0.22400
C947        C  0.26779256  0.89431440  0.55761176    -0.17800
C948        C  0.35683512  0.98765891  0.55698083    -0.17800
C949        C  0.36392412  0.98001906  0.48366804    -0.17800
C950        C  0.27724290  0.88438185  0.48425585    -0.17800
H951        H  0.29769024  0.90745252  0.59674952     0.15200
H952        H  0.34548061  0.95773172  0.59641629     0.15200
H953        H  0.31121268  0.89410419  0.44562541     0.15200
H954        H  0.35765708  0.94527271  0.44535823     0.15200
H955        H  0.21577778  0.84785727  0.54077703     0.13400
H956        H  0.22108783  0.84227518  0.50089498     0.13400
H957        H  0.39856401  0.54294466  0.53951857     0.13400
H958        H  0.40266599  0.53869386  0.49955754     0.13400
H959        H  0.30624925  0.94632191  0.53635774     0.26700
H960        H  0.31414107  0.93821237  0.50465900     0.26700
N961        N  0.06094480  0.68593124  0.05059495    -0.36100
N962        N  0.09631143  0.72915589  0.01973526    -0.56600
N963        N  0.05068837  0.69765985  0.98893881    -0.36100
N964        N  0.01455415  0.65510607  0.01982156    -0.56600
C965        C  0.07910096  0.70865311  0.06248240     0.27500
C966        C  0.03657828  0.66973529  0.06253967     0.27500
C967        C  0.07184009  0.71749260  0.97680311     0.27500
C968        C  0.02940437  0.67834140  0.97678019     0.27500
C969        C  0.11563694  0.73906350  0.03593379     0.36100
C970        C  0.11144859  0.74411742  0.00323666     0.36100
C971        C  0.00234736  0.63708450  0.03611780     0.36100
C972        C  0.99838016  0.64160976  0.00332745     0.36100
C973        C  0.06645901  0.70635731  0.08224113    -0.21400
C974        C  0.03974377  0.68189521  0.08227448    -0.21400
C975        C  0.06331621  0.71117271  0.95665906    -0.21300
C976        C  0.03686319  0.68656011  0.95663554    -0.21300
C977        C  0.14326245  0.76060300  0.02972397    -0.22400
C978        C  0.14058422  0.76384100  0.00899552    -0.22400
C979        C  0.47795317  0.61207965  0.02999333    -0.22400
C980        C  0.47538399  0.61499253  0.00922153    -0.22400
C981        C  0.10739678  0.73084097  0.05633101    -0.17800
C982        C  0.01200118  0.64362384  0.05647903    -0.17800
C983        C  0.00410792  0.65268372  0.98302006    -0.17800
C984        C  0.09954106  0.74030012  0.98304602    -0.17800
H985        H  0.07543864  0.72087953  0.09534796     0.15200
H986        H  0.02421256  0.67414137  0.09538160     0.15200
H987        H  0.07544567  0.72237600  0.94320560     0.15200
H988        H  0.02517564  0.67549045  0.94312418     0.15200
H989        H  0.16305012  0.77298844  0.03915481     0.13400
H990        H  0.15810430  0.77896262  0.99928805     0.13400
H991        H  0.46336244  0.59381068  0.03949574     0.13400
H992        H  0.45858221  0.59923588  0.99957029     0.13400
H993        H  0.06600300  0.68054481  0.03546618     0.26700
H994        H  0.05083363  0.69728015  0.00457444     0.26700
N995        N  0.05828812  0.68510596  0.48467945    -0.36100
N996        N  0.09608642  0.64464561  0.51533734    -0.56600
N997        N  0.05818369  0.68373043  0.54670922    -0.36100
N998        N  0.01681826  0.72085771  0.51615168    -0.56600
C999        C  0.07416177  0.66072695  0.47285520     0.27500
C1000       C  0.03339198  0.70131933  0.47328368     0.27500
C1001       C  0.07489935  0.65928456  0.55817380     0.27500
C1002       C  0.03348724  0.69921070  0.55857670     0.27500
C1003       C  0.11368565  0.63315850  0.49879398     0.36100
C1004       C  0.11415567  0.63290462  0.53167876     0.36100
C1005       C  0.00670650  0.73995445  0.49982701     0.36100
C1006       C  0.00630022  0.73894143  0.53270551     0.36100
C1007       C  0.05934174  0.66172428  0.45359898    -0.21400
C1008       C  0.03363611  0.68728178  0.45387178    -0.21400
C1009       C  0.06078608  0.65944234  0.57765513    -0.21300
C1010       C  0.03472713  0.68456067  0.57790391    -0.21300
C1011       C  0.14273183  0.61330944  0.50464282    -0.22400
C1012       C  0.14304954  0.61318201  0.52551882    -0.22400
C1013       C  0.48898570  0.76998728  0.50601477    -0.22400
C1014       C  0.48874657  0.76934742  0.52689489    -0.22400
C1015       C  0.10293816  0.63897708  0.47853864    -0.17800
C1016       C  0.01213830  0.73001139  0.47944315    -0.17800
C1017       C  0.01160180  0.72784358  0.55294667    -0.17800
C1018       C  0.10402285  0.63841103  0.55204553    -0.17800
H1019       H  0.06653679  0.64597021  0.44059047     0.15200
H1020       H  0.01730315  0.69493945  0.44111138     0.15200
H1021       H  0.06868900  0.64348665  0.59052091     0.15200
H1022       H  0.01890693  0.69154270  0.59098501     0.15200
H1023       H  0.16153518  0.60007448  0.49490321     0.13400
H1024       H  0.16211393  0.59979218  0.53505993     0.13400
H1025       H  0.47755822  0.79028241  0.49648426     0.13400
H1026       H  0.47715698  0.78905093  0.53666864     0.13400
H1027       H  0.06551525  0.69197452  0.49925717     0.26700
H1028       H  0.06492864  0.69106932  0.53207889     0.26700
N1029       N  0.32257408  0.94764137  0.98457470    -0.36100
N1030       N  0.35488016  0.90290267  0.01572508    -0.56600
N1031       N  0.31456161  0.94078306  0.04640427    -0.36100
N1032       N  0.27958582  0.98284733  0.01544831    -0.56600
C1033       C  0.33849211  0.92273149  0.97307948     0.27500
C1034       C  0.29772243  0.96352132  0.97285687     0.27500
C1035       C  0.32865629  0.91480352  0.05793064     0.27500
C1036       C  0.28996879  0.95735277  0.05783381     0.27500
C1037       C  0.37439000  0.89238390  0.99969271     0.36100
C1038       C  0.37005371  0.88876575  0.03241875     0.36100
C1039       C  0.26919160  0.00159492  0.99905958     0.36100
C1040       C  0.26688850  0.99969581  0.03193448     0.36100
C1041       C  0.32408044  0.92328857  0.95373942    -0.21400
C1042       C  0.29843094  0.94890864  0.95359819    -0.21400
C1043       C  0.31272713  0.91490211  0.07694857    -0.21300
C1044       C  0.28840419  0.94164335  0.07687988    -0.21300
C1045       C  0.40181889  0.87087748  0.00616831    -0.22400
C1046       C  0.39905495  0.86857711  0.02695432    -0.22400
C1047       C  0.24903608  0.53005825  0.00513872    -0.22400
C1048       C  0.24769755  0.52885272  0.02600790    -0.22400
C1049       C  0.36629557  0.90003419  0.97924899    -0.17800
C1050       C  0.27514479  0.99157481  0.97872297    -0.17800
C1051       C  0.27050129  0.98765177  0.05213891    -0.17800
C1052       C  0.35722941  0.89269300  0.05241037    -0.17800
H1053       H  0.33110619  0.90674216  0.94103216     0.15200
H1054       H  0.28212072  0.95586392  0.94070561     0.15200
H1055       H  0.31839801  0.89799139  0.08979353     0.15200
H1056       H  0.27191490  0.94898952  0.08961631     0.15200
H1057       H  0.42143486  0.85783629  0.99687540     0.13400
H1058       H  0.41613967  0.85345292  0.03687077     0.13400
H1059       H  0.23627730  0.54946589  0.99555270     0.13400
H1060       H  0.23366247  0.54707882  0.03568839     0.13400
H1061       H  0.32946163  0.95447883  0.99925106     0.26700
H1062       H  0.32299985  0.94835252  0.03210942     0.26700
C1063       C  0.43935731  0.81458562  0.85531981     0.03700
C1064       C  0.41830597  0.78996771  0.84489999    -0.12500
C1065       C  0.41851469  0.78883642  0.82357241     0.01200
C1066       C  0.44065160  0.81175076  0.81266800    -0.11000
C1067       C  0.46287425  0.83537800  0.82279598     0.03700
C1068       C  0.46238221  0.83639501  0.84408199    -0.10400
H1069       H  0.39999950  0.77331985  0.85314145     0.09300
H1070       H  0.44027999  0.81139193  0.79621427     0.06800
H1071       H  0.47846869  0.85571076  0.85182875     0.06600
C1072       C  0.44792126  0.58116586  0.85369100     0.03700
C1073       C  0.46800074  0.55555552  0.84335826    -0.12500
C1074       C  0.46221029  0.54923189  0.82261592     0.01200
C1075       C  0.43653554  0.56877692  0.81226111    -0.11000
C1076       C  0.41663452  0.59441357  0.82221042     0.03700
C1077       C  0.42256453  0.60071240  0.84285496    -0.10400
H1078       H  0.48783948  0.54036049  0.85132207     0.09300
H1079       H  0.43233399  0.56438041  0.79624486     0.06800
H1080       H  0.40685114  0.62038232  0.85058228     0.06600
C1081       C  0.18522168  0.57141487  0.85645518     0.03700
C1082       C  0.20556324  0.59508177  0.84464095    -0.12500
C1083       C  0.20392202  0.59470590  0.82335823     0.01200
C1084       C  0.18055106  0.57154770  0.81378932    -0.11000
C1085       C  0.15869867  0.54906905  0.82517872     0.03700
C1086       C  0.16091349  0.54923475  0.84651820    -0.10400
H1087       H  0.22440413  0.61245014  0.85173760     0.09300
H1088       H  0.17951542  0.57078879  0.79735139     0.06800
H1089       H  0.14532853  0.53060938  0.85525997     0.06600
C1090       C  0.17128912  0.80176750  0.85410348     0.03700
C1091       C  0.19626259  0.78207222  0.84322517    -0.12500
C1092       C  0.20281177  0.78889244  0.82259582     0.01200
C1093       C  0.18389501  0.81577877  0.81268225    -0.11000
C1094       C  0.15800094  0.83506306  0.82319987     0.03700
C1095       C  0.15197326  0.82788397  0.84386380    -0.10400
H1096       H  0.21129667  0.76185447  0.85086401     0.09300
H1097       H  0.18885481  0.82123743  0.79676080     0.06800
H1098       H  0.13265001  0.84317811  0.85215247     0.06600
C1099       C  0.17161847  0.58190069  0.68186643     0.03700
C1100       C  0.19642628  0.60334677  0.69173226    -0.12500
C1101       C  0.20245099  0.59963582  0.71264182     0.01200
C1102       C  0.18329489  0.57453010  0.72378281    -0.11000
C1103       C  0.15788559  0.55348394  0.71430662     0.03700
C1104       C  0.15204838  0.55736713  0.69339630    -0.10400
H1105       H  0.21172100  0.62225807  0.68303726     0.09300
H1106       H  0.18800495  0.57164707  0.73992461     0.06800
H1107       H  0.13254925  0.54081463  0.68621592     0.06600
C1108       C  0.43617290  0.56904890  0.68010250     0.03700
C1109       C  0.41497229  0.59295208  0.69084439    -0.12500
C1110       C  0.41539981  0.59367898  0.71214335     0.01200
C1111       C  0.43761902  0.57041721  0.72279304    -0.11000
C1112       C  0.46040529  0.54768733  0.71227278     0.03700
C1113       C  0.45971482  0.54731262  0.69096692    -0.10400
H1114       H  0.39667717  0.60973744  0.68265692     0.09300
H1115       H  0.43748565  0.57030235  0.73925278     0.06800
H1116       H  0.47603769  0.52846353  0.68306663     0.06600
C1117       C  0.39291404  0.76674625  0.81251373     0.43000
N1118       N  0.35072064  0.75414547  0.79203656     0.01900
C1119       C  0.24477700  0.60567100  0.79167902    -0.06000
H1120       H  0.37754154  0.58081488  0.78243508     0.07400
C1121       C  0.37479170  0.64972557  0.71611918    -0.06300
Co1122     Co  0.31049922  0.69016292  0.80507981     0.74200
N1123       N  0.34764153  0.62762860  0.78870827    -0.25500
Co1124     Co  0.30979427  0.62979333  0.76597170     0.74100
C1125       C  0.39070004  0.61680824  0.72321293     0.43100
N1126       N  0.35093262  0.73570376  0.73180932     0.01500
N1127       N  0.34904187  0.63163376  0.74361691     0.01600
N1128       N  0.24713047  0.64420303  0.81770438    -0.46400
H1129       H  0.38025790  0.71891074  0.83294912     0.07400
N1130       N  0.34811054  0.65041711  0.80373921     0.01900
N1131       N  0.27180574  0.63324422  0.74331208     0.01600
C1132       C  0.22983833  0.62051961  0.72288172     0.43200
N1133       N  0.35091365  0.75840373  0.74690218    -0.25000
C1134       C  0.24652677  0.73551348  0.81863210    -0.05900
N1135       N  0.37604311  0.77740948  0.79551169    -0.46100
N1136       N  0.24657621  0.60994794  0.73990399    -0.46300
C1137       C  0.23007595  0.76827352  0.81180848     0.43000
N1138       N  0.27125445  0.65152345  0.80364317     0.01900
N1139       N  0.27392826  0.75924566  0.74684742    -0.25000
N1140       N  0.34971732  0.72883050  0.80582354    -0.25500
N1141       N  0.27384676  0.73681780  0.73161576     0.01500
H1142       H  0.24251462  0.80489825  0.75370794     0.07400
H1143       H  0.24220376  0.66846336  0.70242390     0.07400
N1144       N  0.27081735  0.62899687  0.78846780    -0.25500
N1145       N  0.34943767  0.65689384  0.72977176    -0.25100
N1146       N  0.27313933  0.75560538  0.79190160     0.01900
C1147       C  0.38914409  0.61377312  0.81097352     0.43300
C1148       C  0.37718183  0.78150211  0.74399101    -0.06400
N1149       N  0.27279981  0.65847948  0.72948439    -0.25100
H1150       H  0.38045903  0.66496516  0.70258123     0.07400
N1151       N  0.37237933  0.64291334  0.81757763    -0.46400
H1152       H  0.38269957  0.80384654  0.75356710     0.07400
C1153       C  0.23153685  0.77248311  0.72495870     0.43100
C1154       C  0.37532302  0.73462164  0.81951014    -0.05900
Co1155     Co  0.31220113  0.75755063  0.76945579     0.73800
N1156       N  0.37597063  0.74240922  0.71818628    -0.46100
C1157       C  0.22901946  0.61584377  0.81104663     0.43400
N1158       N  0.24805865  0.77930239  0.79520425    -0.46100
Co1159     Co  0.31180690  0.69706197  0.73020489     0.73900
C1160       C  0.24722878  0.65267432  0.71581925    -0.06400
C1161       C  0.37275071  0.60351609  0.79187154    -0.06000
N1162       N  0.27281759  0.72989051  0.80543163    -0.25500
N1163       N  0.37316936  0.60708053  0.74020603    -0.46300
H1164       H  0.23930181  0.58299689  0.78234545     0.07400
C1165       C  0.24792953  0.78258131  0.74407339    -0.06400
Cl1166     Cl  0.31111089  0.69363644  0.76767505    -0.49400
C1167       C  0.39381175  0.77085323  0.72496360     0.43100
H1168       H  0.24036987  0.71901526  0.83159153     0.07400
N1169       N  0.24920269  0.74414457  0.71791847    -0.46100
C1170       C  0.45555816  0.80087297  0.68261222     0.03700
C1171       C  0.47538764  0.82652669  0.69290271    -0.12500
C1172       C  0.46885787  0.83400545  0.71337267     0.01200
C1173       C  0.44229384  0.81544591  0.72372920    -0.11000
C1174       C  0.42237357  0.78944835  0.71386341     0.03700
C1175       C  0.42922043  0.78222171  0.69330072    -0.10400
H1176       H  0.49517643  0.84168331  0.68488609     0.09300
H1177       H  0.43733142  0.82124261  0.73955390     0.06800
H1178       H  0.41370598  0.76246307  0.68554784     0.06600
C1179       C  0.18398821  0.81831150  0.68161475     0.03700
C1180       C  0.16099004  0.84021268  0.69260840    -0.12500
C1181       C  0.16068158  0.83942066  0.71387721     0.01200
C1182       C  0.18272707  0.81586893  0.72419555    -0.11000
C1183       C  0.20535324  0.79337359  0.71355181     0.03700
C1184       C  0.20555579  0.79421286  0.69223490    -0.10400
H1185       H  0.14485675  0.85939322  0.68466128     0.09300
H1186       H  0.18278281  0.81555823  0.74064528     0.06800
H1187       H  0.22439680  0.77805023  0.68415225     0.06600
C1188       C  0.13745662  0.86300584  0.81287560     0.43000
N1189       N  0.12398359  0.90555026  0.79280064     0.01900
C1190       C  0.47150934  0.50546133  0.79243388    -0.06000
H1191       H  0.45088117  0.87207863  0.78230555     0.07400
C1192       C  0.02094302  0.87997978  0.71683520    -0.06300
Co1193     Co  0.05825867  0.94272745  0.80604340     0.74200
N1194       N  0.99667492  0.90369704  0.78901205    -0.25500
Co1195     Co  0.49714697  0.94254840  0.76665187     0.74100
C1196       C  0.48874917  0.86217616  0.72371956     0.43100
N1197       N  0.10465960  0.90744488  0.73246909     0.01500
N1198       N  0.00042075  0.90466786  0.74392293     0.01600
N1199       N  0.01094313  0.50473532  0.81830448    -0.46400
H1200       H  0.08838013  0.87314596  0.83291560     0.07400
N1201       N  0.01927815  0.90383696  0.80426479     0.01900
N1202       N  0.49853737  0.98169081  0.74425646     0.01600
C1203       C  0.48334462  0.52275452  0.72344943     0.43200
N1204       N  0.12742455  0.90723570  0.74764147    -0.25000
C1205       C  0.10399333  0.50597775  0.82122582    -0.05900
N1206       N  0.14804325  0.88079295  0.79611484    -0.46100
N1207       N  0.47363859  0.50546185  0.74053915    -0.46300
C1208       C  0.13657589  0.52313642  0.81440969     0.43000
N1209       N  0.01829306  0.98041506  0.80461488     0.01900
N1210       N  0.12620651  0.98378437  0.74809240    -0.25000
N1211       N  0.09832916  0.90514668  0.80642695    -0.25500
N1212       N  0.10315166  0.98391700  0.73305023     0.01500
H1213       H  0.17211631  0.51545839  0.75454974     0.07400
H1214       H  0.03188199  0.51264643  0.70302860     0.07400
N1215       N  0.49540711  0.98011319  0.78949070    -0.25500
N1216       N  0.02602396  0.90580634  0.73029322    -0.25100
N1217       N  0.12278926  0.98252512  0.79331911     0.01900
C1218       C  0.98376572  0.86129215  0.81104670     0.43300
C1219       C  0.15093823  0.88149157  0.74462814    -0.06400
N1220       N  0.02395605  0.98212558  0.73048822    -0.25100
H1221       H  0.03738262  0.87490538  0.70371903     0.07400
N1222       N  0.01209402  0.87924881  0.81803869    -0.46400
H1223       H  0.17353190  0.87585481  0.75415737     0.07400
C1224       C  0.13842856  0.52657206  0.72608353     0.43100
C1225       C  0.10453644  0.87921384  0.81978784    -0.05900
Co1226     Co  0.12576824  0.94479685  0.77047448     0.73800
N1227       N  0.11182107  0.88326915  0.71863235    -0.46100
C1228       C  0.48181170  0.52171334  0.81156480     0.43400
N1229       N  0.14667875  0.50709916  0.79710343    -0.46100
Co1230     Co  0.06454580  0.94490784  0.73115944     0.73900
C1231       C  0.01659962  0.50711659  0.71657760    -0.06400
C1232       C  0.47347075  0.87751355  0.79184409    -0.06000
N1233       N  0.09749048  0.98138117  0.80715494    -0.25500
N1234       N  0.47747813  0.87902932  0.74052852    -0.46300
H1235       H  0.44884403  0.51047604  0.78285612     0.07400
C1236       C  0.14938215  0.51006523  0.74512001    -0.06400
Cl1237     Cl  0.06144355  0.94384434  0.76859001    -0.49400
C1238       C  0.14042651  0.86559671  0.72546920     0.41100
H1239       H  0.08856586  0.51040417  0.83482063     0.07400
N1240       N  0.10980873  0.50884385  0.71936593    -0.46100
C1241       C  0.24359610  0.54375996  0.93839585     0.30300
C1242       C  0.24620304  0.56898452  0.92285357    -0.36000
C1243       C  0.22092520  0.56673159  0.90734425     0.16300
C1244       C  0.19471841  0.54152650  0.90707360     0.22100
C1245       C  0.19130644  0.51700284  0.92302746    -0.34100
C1246       C  0.21675551  0.51909605  0.93851905     0.16200
O1247       O  0.26702590  0.53829554  0.95291563    -0.26200
C1248       C  0.25489784  0.00995486  0.96261274     0.06000
C1249       C  0.22363886  0.99704553  0.95440804    -0.31000
O1250       O  0.17728653  0.54116529  0.88967562    -0.22900
C1251       C  0.19239093  0.56662822  0.87860980    -0.02900
C1252       C  0.21939253  0.58368105  0.88916042    -0.17300
H1253       H  0.26783672  0.58762421  0.92219196     0.20700
H1254       H  0.17190835  0.99628222  0.92263461     0.19100
H1255       H  0.20938952  0.97346358  0.95874037     0.19000
H1256       H  0.23758503  0.60366122  0.88385382     0.14900
C1257       C  0.39568871  0.84554916  0.93992588     0.30300
C1258       C  0.39218846  0.81831727  0.92573888    -0.36000
C1259       C  0.41262354  0.82157572  0.90800069     0.16300
C1260       C  0.43533034  0.84940426  0.90464326     0.22100
C1261       C  0.43942585  0.87620618  0.91900054    -0.34100
C1262       C  0.41861973  0.87327660  0.93656164     0.16200
O1263       O  0.37566790  0.85027158  0.95611072    -0.26200
C1264       C  0.38604679  0.88129619  0.96320589     0.06000
C1265       C  0.41273959  0.89679344  0.95171491    -0.31000
O1266       O  0.44885271  0.84936566  0.88620314    -0.22900
C1267       C  0.43472280  0.82118833  0.87741795    -0.02900
C1268       C  0.41209620  0.80269030  0.89045412    -0.17300
H1269       H  0.37317241  0.79729407  0.92778905     0.20700
H1270       H  0.45597065  0.89893193  0.91608099     0.19100
H1271       H  0.42408668  0.92275748  0.95341191     0.19000
H1272       H  0.39580473  0.78000361  0.88725853     0.14900
C1273       C  0.13294273  0.59285272  0.59484743     0.30300
C1274       C  0.12790349  0.57008322  0.61138545    -0.36000
C1275       C  0.14673010  0.57829320  0.62901837     0.16300
C1276       C  0.16925168  0.60672278  0.63031027     0.22100
C1277       C  0.17498915  0.62906981  0.61360887    -0.34100
C1278       C  0.15594874  0.62102361  0.59597717     0.16200
O1279       O  0.11378014  0.59337734  0.57816878    -0.26200
C1280       C  0.12499410  0.62192547  0.56836084     0.06000
C1281       C  0.15132034  0.64004416  0.57864325    -0.31000
O1282       O  0.18146127  0.61129934  0.64884297    -0.22900
C1283       C  0.16651197  0.58549042  0.65962727    -0.02900
C1284       C  0.14485521  0.56396736  0.64790407    -0.17300
H1285       H  0.10885286  0.54883317  0.61097018     0.20700
H1286       H  0.19144861  0.65229380  0.61466566     0.19100
H1287       H  0.16232662  0.66559292  0.57496072     0.19000
H1288       H  0.12888277  0.54171236  0.65251567     0.14900
C1289       C  0.45470796  0.77452539  0.63129092     0.30300
C1290       C  0.44308493  0.75573735  0.61422698    -0.36000
C1291       C  0.46494762  0.75764094  0.59696164     0.16300
C1292       C  0.49600869  0.77678861  0.59658303     0.22100
C1293       C  0.50716530  0.79605085  0.61344900    -0.34100
C1294       C  0.48548645  0.79395287  0.63065249     0.16200
O1295       O  0.44000293  0.77440706  0.64950465    -0.26200
C1296       C  0.46164701  0.79412563  0.66067396     0.06000
C1297       C  0.49042287  0.80689325  0.64957960    -0.31000
O1298       O  0.01492978  0.77104653  0.58014202    -0.22900
C1299       C  0.99566540  0.74831654  0.56963308    -0.02900
C1300       C  0.46414392  0.73913619  0.57927309    -0.17300
H1301       H  0.41964246  0.73939262  0.61470567     0.20700
H1302       H  0.03208029  0.81010047  0.61353232     0.19100
H1303       H  0.51265279  0.82241417  0.65466153     0.19000
H1304       H  0.44548802  0.71894157  0.57492478     0.14900
C1305       C  0.15048898  0.76340239  0.94089064     0.30300
C1306       C  0.17328017  0.75541548  0.92474666    -0.36000
C1307       C  0.16816232  0.77481264  0.90684518     0.16300
C1308       C  0.14278504  0.80066254  0.90502463     0.22100
C1309       C  0.12054738  0.80928168  0.92131709    -0.34100
C1310       C  0.12534019  0.78961126  0.93916686     0.16200
O1311       O  0.14668559  0.74459821  0.95760920    -0.26200
C1312       C  0.11899676  0.75909077  0.96679596     0.06000
C1313       C  0.10482544  0.78741611  0.95612703    -0.31000
O1314       O  0.14080605  0.81355940  0.88645918    -0.22900
C1315       C  0.16522959  0.79578169  0.87613331    -0.02900
C1316       C  0.18314816  0.77130369  0.88819303    -0.17300
H1317       H  0.19208758  0.73399631  0.92563852     0.20700
H1318       H  0.09958140  0.82849891  0.91978662     0.19100
H1319       H  0.08051545  0.80144312  0.95925306     0.19000
H1320       H  0.20356258  0.75280215  0.88397670     0.14900
C1321       C  0.44793851  0.61326060  0.90371609     0.30300
C1322       C  0.44075645  0.63765665  0.91907670    -0.36000
C1323       C  0.45689631  0.63113912  0.93786834     0.16300
C1324       C  0.47869270  0.60257314  0.94129997     0.22100
C1325       C  0.48516321  0.57772404  0.92604579    -0.34100
C1326       C  0.46918765  0.58439987  0.90721203     0.16200
O1327       O  0.43770930  0.61568394  0.88466018    -0.26200
C1328       C  0.45258524  0.58804377  0.87568398     0.06000
C1329       C  0.47244036  0.56754881  0.88910038    -0.31000
O1330       O  0.99562681  0.60469871  0.95873781    -0.22900
C1331       C  0.48428789  0.63478142  0.96666860    -0.02900
C1332       C  0.45975436  0.65208833  0.95447009    -0.17300
H1333       H  0.42524993  0.66110682  0.91624664     0.20700
H1334       H  0.00317148  0.55592906  0.92831776     0.19100
H1335       H  0.48756596  0.54400722  0.88606020     0.19000
H1336       H  0.44926154  0.67835913  0.95638559     0.14900
C1337       C  0.40210435  0.56236715  0.63067711     0.30300
C1338       C  0.37509665  0.56418924  0.61612114    -0.36000
C1339       C  0.37935650  0.54265341  0.59907553     0.16300
C1340       C  0.40857768  0.02117868  0.59635797     0.22100
C1341       C  0.43586621  0.01994126  0.61071895    -0.34100
C1342       C  0.43126246  0.54112402  0.62790607     0.16200
O1343       O  0.40124382  0.57653449  0.64888505    -0.26200
C1344       C  0.43017273  0.56420248  0.65801583     0.06000
C1345       C  0.45009003  0.54234942  0.64545439    -0.31000
O1346       O  0.40536799  0.00036765  0.58053919    -0.22900
C1347       C  0.37393735  0.00876919  0.57293413    -0.02900
C1348       C  0.35646012  0.53489832  0.58381550    -0.17300
H1349       H  0.35138688  0.57958674  0.61853233     0.20700
H1350       H  0.45799969  0.00207432  0.60922250     0.19100
H1351       H  0.47366438  0.52744580  0.64900048     0.19000
H1352       H  0.32991528  0.54483654  0.58155964     0.14900
C1353       C  0.23041646  0.84448172  0.59707610     0.30300
C1354       C  0.22915744  0.81649813  0.61103614    -0.36000
C1355       C  0.20988691  0.82258687  0.62889216     0.16300
C1356       C  0.19257965  0.85384765  0.63259758     0.22100
C1357       C  0.19325929  0.88159370  0.61849558    -0.34100
C1358       C  0.21296663  0.87571905  0.60080426     0.16200
O1359       O  0.25048989  0.84609956  0.58069651    -0.26200
C1360       C  0.24570510  0.87872043  0.57386558     0.06000
C1361       C  0.22260328  0.89832806  0.58572071    -0.31000
O1362       O  0.17960928  0.85539327  0.65112951    -0.22900
C1363       C  0.18879053  0.82482797  0.65957447    -0.02900
C1364       C  0.20741649  0.80317798  0.64628005    -0.17300
H1365       H  0.24402147  0.79251597  0.60872217     0.20700
H1366       H  0.18114755  0.90677628  0.62167459     0.19100
H1367       H  0.21605900  0.92594434  0.58423119     0.19000
H1368       H  0.21937827  0.77782654  0.64925811     0.14900
C1369       C  0.22183706  0.51353313  0.09448273     0.30300
C1370       C  0.19695689  0.50789177  0.10998373    -0.36000
C1371       C  0.20436673  0.52378948  0.12865949     0.16300
C1372       C  0.23392033  0.54426724  0.13185817     0.22100
C1373       C  0.25841358  0.55062679  0.11621292    -0.34100
C1374       C  0.25123772  0.53440122  0.09756973     0.16200
O1375       O  0.22306989  0.49666074  0.07704912    -0.26200
C1376       C  0.25326003  0.00739317  0.06871419     0.06000
C1377       C  0.27170563  0.03107893  0.08074006    -0.31000
O1378       O  0.23712887  0.55398759  0.15097762    -0.22900
C1379       C  0.20933612  0.53940923  0.16025391    -0.02900
C1380       C  0.18790544  0.52053737  0.14693618    -0.17300
H1381       H  0.17460827  0.49043257  0.10802615     0.20700
H1382       H  0.28245463  0.56543287  0.11874740     0.19100
H1383       H  0.29826581  0.04099669  0.07842041     0.19000
H1384       H  0.16411895  0.50567784  0.15012323     0.14900
C1385       C  0.13217173  0.58722683  0.43800162     0.30300
C1386       C  0.12919029  0.56091215  0.42326081    -0.36000
C1387       C  0.15178580  0.56410586  0.40644427     0.16300
C1388       C  0.17577835  0.59120374  0.40431465     0.22100
C1389       C  0.17921513  0.61721943  0.41921298    -0.34100
C1390       C  0.15650435  0.61414474  0.43598704     0.16200
O1391       O  0.11117571  0.59139187  0.45381175    -0.26200
C1392       C  0.12247704  0.62113081  0.46211833     0.06000
C1393       C  0.15058329  0.63646989  0.45171725    -0.31000
O1394       O  0.19165198  0.59104948  0.38649280    -0.22900
C1395       C  0.17776272  0.56346959  0.37695931    -0.02900
C1396       C  0.15295757  0.54553748  0.38885109    -0.17300
H1397       H  0.10939620  0.54039897  0.42432715     0.20700
H1398       H  0.19707637  0.63927488  0.41736325     0.19100
H1399       H  0.16314741  0.66153561  0.45460471     0.19000
H1400       H  0.13647679  0.52337703  0.38487612     0.14900
C1401       C  0.39649110  0.54449969  0.40497484     0.30300
C1402       C  0.37268127  0.54906820  0.42110992    -0.36000
C1403       C  0.38081737  0.53105700  0.43915103     0.16300
C1404       C  0.41051072  0.51017297  0.44124899     0.22100
C1405       C  0.43478899  0.50641563  0.42529262    -0.34100
C1406       C  0.42638877  0.52407590  0.40719067     0.16200
O1407       O  0.39211363  0.55575861  0.38616084    -0.26200
C1408       C  0.41950608  0.54228162  0.37608628     0.06000
C1409       C  0.44186326  0.52256770  0.38858105    -0.31000
O1410       O  0.41003972  0.99155291  0.45812578    -0.22900
C1411       C  0.37991657  0.00086567  0.46704533    -0.02900
C1412       C  0.36074887  0.02555766  0.45600009    -0.17300
H1413       H  0.34835837  0.56377309  0.41931372     0.20700
H1414       H  0.45734055  0.48897927  0.42644284     0.19100
H1415       H  0.46545535  0.50804841  0.38461696     0.19000
H1416       H  0.33418982  0.03490595  0.45894506     0.14900
C1417       C  0.13736411  0.78306840  0.09642874     0.30300
C1418       C  0.13401768  0.80904163  0.11131563    -0.36000
C1419       C  0.15737921  0.80655667  0.12775219     0.16300
C1420       C  0.18244044  0.78038496  0.12947238     0.22100
C1421       C  0.18641652  0.75481634  0.11429170    -0.34100
C1422       C  0.16284454  0.75714590  0.09786930     0.16200
O1423       O  0.11560733  0.77817087  0.08109784    -0.26200
C1424       C  0.12744864  0.74893278  0.07246378     0.06000
C1425       C  0.15678710  0.73464538  0.08218994    -0.31000
O1426       O  0.19787817  0.78015886  0.14744238    -0.22900
C1427       C  0.18255239  0.80654417  0.15744583    -0.02900
C1428       C  0.15753307  0.82422599  0.14562584    -0.17300
H1429       H  0.11316011  0.82852824  0.11076298     0.20700
H1430       H  0.20501520  0.73332284  0.11581621     0.19100
H1431       H  0.17010578  0.71010263  0.07894958     0.19000
H1432       H  0.13956679  0.84501945  0.14992556     0.14900
C1433       C  0.46030033  0.60937496  0.09633497     0.30300
C1434       C  0.43269473  0.60951570  0.11065119    -0.36000
C1435       C  0.43751833  0.58804847  0.12785465     0.16300
C1436       C  0.46725609  0.56760815  0.13066948     0.22100
C1437       C  0.49454226  0.56698760  0.11622159    -0.34100
C1438       C  0.48993373  0.58869467  0.09916088     0.16200
O1439       O  0.46315904  0.63025869  0.08031796    -0.26200
C1440       C  0.49492845  0.62262091  0.07278245     0.06000
C1441       C  0.01275853  0.59702414  0.08388401    -0.31000
O1442       O  0.46824667  0.55278965  0.14879175    -0.22900
C1443       C  0.43882428  0.56383600  0.15791082    -0.02900
C1444       C  0.41843405  0.58557763  0.14537987    -0.17300
H1445       H  0.41000779  0.62667076  0.10905671     0.20700
H1446       H  0.01862505  0.55217759  0.11868163     0.19100
H1447       H  0.03954390  0.58768027  0.08171954     0.19000
H1448       H  0.39433547  0.59958859  0.14894647     0.14900
C1449       C  0.22779226  0.86645923  0.44083451     0.30300
C1450       C  0.20700043  0.87659450  0.42417836    -0.36000
C1451       C  0.21017007  0.85588826  0.40671126     0.16300
C1452       C  0.23205915  0.82698142  0.40567623     0.22100
C1453       C  0.25251301  0.81645787  0.42248436    -0.34100
C1454       C  0.24949385  0.83730202  0.43998710     0.16200
O1455       O  0.23249496  0.88492201  0.45749127    -0.26200
C1456       C  0.25721082  0.86728778  0.46766632     0.06000
C1457       C  0.26866735  0.83725597  0.45755972    -0.31000
O1458       O  0.23245857  0.81277945  0.38739459    -0.22900
C1459       C  0.21047016  0.83280958  0.37647690    -0.02900
C1460       C  0.19587899  0.86008293  0.38789712    -0.17300
H1461       H  0.19084397  0.90009318  0.42446869     0.20700
H1462       H  0.27070726  0.79452878  0.42166845     0.19100
H1463       H  0.29060166  0.82027709  0.46152438     0.19000
H1464       H  0.17806580  0.88076981  0.38312773     0.14900
C1465       C  0.39528997  0.83133441  0.13102546     0.30300
C1466       C  0.37586815  0.82207421  0.11373418    -0.36000
C1467       C  0.38094838  0.84341426  0.09654475     0.16300
C1468       C  0.40346800  0.87203468  0.09644978     0.22100
C1469       C  0.42335583  0.88088383  0.11361441    -0.34100
C1470       C  0.41824852  0.85951742  0.13076599     0.16200
O1471       O  0.39273364  0.81656183  0.14911946    -0.26200
C1472       C  0.41440540  0.83542513  0.16069387     0.06000
C1473       C  0.43108241  0.86252380  0.14992767    -0.31000
O1474       O  0.40030387  0.89134413  0.07991070    -0.22900
C1475       C  0.37585972  0.87467300  0.06913777    -0.02900
C1476       C  0.36306393  0.84447387  0.07862898    -0.17300
H1477       H  0.35686792  0.80076696  0.11396614     0.20700
H1478       H  0.44016580  0.90393642  0.11391577     0.19100
H1479       H  0.44911896  0.88245475  0.15532918     0.19000
H1480       H  0.34095166  0.82825174  0.07407029     0.14900
C1481       C  0.46824152  0.80171252  0.40427037     0.30300
C1482       C  0.99483399  0.80420354  0.41902024    -0.36000
C1483       C  0.99010004  0.78337206  0.43643932     0.16300
C1484       C  0.46107370  0.76176066  0.43920813     0.22100
C1485       C  0.43426627  0.75973662  0.42459672    -0.34100
C1486       C  0.43914813  0.78033901  0.40711910     0.16200
O1487       O  0.46918044  0.81581497  0.38597394    -0.26200
C1488       C  0.44035833  0.80331040  0.37687900     0.06000
C1489       C  0.42050595  0.78129363  0.38948727    -0.31000
O1490       O  0.46390553  0.74162465  0.45546320    -0.22900
C1491       C  0.99492877  0.75073885  0.46328693    -0.02900
C1492       C  0.01244472  0.77653299  0.45213125    -0.17300
H1493       H  0.01846839  0.81977065  0.41659113     0.20700
H1494       H  0.41215934  0.74183054  0.42622636     0.19100
H1495       H  0.39688172  0.76648585  0.38598020     0.19000
H1496       H  0.03891439  0.78662235  0.45442037     0.14900
C1497       C  0.93387733  0.30895390  0.35488692     0.03700
C1498       C  0.91096827  0.28702302  0.34378237    -0.12500
C1499       C  0.91051894  0.28847020  0.32246513     0.01200
C1500       C  0.93258363  0.31244081  0.31230073    -0.11000
C1501       C  0.95428116  0.33544127  0.32320731     0.03700
C1502       C  0.95456182  0.33384477  0.34443764    -0.10400
H1503       H  0.89522111  0.26724799  0.35146264     0.09300
H1504       H  0.93302484  0.31315175  0.29584576     0.06800
H1505       H  0.97258832  0.35055274  0.35277528     0.06600
C1506       C  0.91885244  0.32817178  0.18269384     0.03700
C1507       C  0.94396578  0.34657667  0.19422405    -0.12500
C1508       C  0.94897390  0.33883265  0.21484811     0.01200
C1509       C  0.92841104  0.31256390  0.22410972    -0.11000
C1510       C  0.90293072  0.29407815  0.21295544     0.03700
C1511       C  0.89813545  0.30213623  0.19228318    -0.10400
H1512       H  0.96047366  0.36637038  0.18714994     0.09300
H1513       H  0.93219064  0.30645525  0.24004066     0.06800
H1514       H  0.87888653  0.28756846  0.18354045     0.06600
C1515       C  0.70332333  0.32624297  0.35445072     0.03700
C1516       C  0.72184001  0.29965911  0.34412181    -0.12500
C1517       C  0.71488682  0.29234428  0.32355088     0.01200
C1518       C  0.68877895  0.31183019  0.31329462    -0.11000
C1519       C  0.67036100  0.33891928  0.32318911     0.03700
C1520       C  0.67794133  0.34601161  0.34368044    -0.10400
H1521       H  0.74140875  0.28430396  0.35223365     0.09300
H1522       H  0.68316123  0.30625855  0.29750683     0.06800
H1523       H  0.66326877  0.36638672  0.35132478     0.06600
C1524       C  0.93289164  0.05794727  0.17996433     0.03700
C1525       C  0.90882503  0.07874130  0.19094224    -0.12500
C1526       C  0.90871019  0.07836147  0.21225065     0.01200
C1527       C  0.93236254  0.05624711  0.22269204    -0.11000
C1528       C  0.95498646  0.03360042  0.21196811     0.03700
C1529       C  0.95499398  0.03454582  0.19064154    -0.10400
H1530       H  0.89179984  0.09712719  0.18308990     0.09300
H1531       H  0.93289838  0.05640303  0.23914777     0.06800
H1532       H  0.97365822  0.01838965  0.18237309     0.06600
C1533       C  0.97952733  0.35817552  0.31233822     0.43000
N1534       N  0.52213310  0.37161314  0.29232804     0.01900
C1535       C  0.62533917  0.02166564  0.29125392    -0.06000
H1536       H  0.49191097  0.04501101  0.28211118     0.07400
C1537       C  0.49622093  0.47778996  0.21605666    -0.06300
Co1538     Co  0.56064955  0.43626274  0.30517107     0.74200
N1539       N  0.52249496  0.49851084  0.28858904    -0.25500
Co1540     Co  0.56062861  0.49717295  0.26585619     0.74100
C1541       C  0.48030462  0.01076367  0.22296883     0.43100
N1542       N  0.52028886  0.39168696  0.23263102     0.01500
N1543       N  0.52155040  0.49555456  0.24355969     0.01600
N1544       N  0.62339677  0.48287365  0.31744584    -0.46400
H1545       H  0.49050332  0.40607426  0.33274102     0.07400
N1546       N  0.52218000  0.47552447  0.30368390     0.01900
N1547       N  0.59894800  0.49413451  0.24317722     0.01600
C1548       C  0.64212636  0.50610751  0.22321337     0.43200
N1549       N  0.52089215  0.36836323  0.24755627    -0.25000
C1550       C  0.62530252  0.39160825  0.31905567    -0.05900
N1551       N  0.49714612  0.34789760  0.29560380    -0.46100
N1552       N  0.62486029  0.01697857  0.23999761    -0.46300
C1553       C  0.64253911  0.35923699  0.31238057     0.43000
N1554       N  0.59919459  0.47550737  0.30354890     0.01900
N1555       N  0.59778910  0.36782841  0.24666026    -0.25000
N1556       N  0.52224918  0.39686378  0.30598728    -0.25500
N1557       N  0.59724889  0.39046999  0.23139888     0.01500
H1558       H  0.62828975  0.32114619  0.25266219     0.07400
H1559       H  0.63006435  0.45808609  0.20305891     0.07400
N1560       N  0.59939647  0.49810222  0.28826755    -0.25500
N1561       N  0.52137211  0.47042780  0.22981477    -0.25100
N1562       N  0.59968223  0.37163503  0.29209955     0.01900
C1563       C  0.48040514  0.01159962  0.31069301     0.43300
C1564       C  0.49423930  0.34556264  0.24494729    -0.06400
N1565       N  0.59819680  0.46888730  0.22950670    -0.25100
H1566       H  0.49077219  0.46272420  0.20253427     0.07400
N1567       N  0.49756184  0.48255760  0.31744236    -0.46400
H1568       H  0.48875252  0.32294028  0.25447200     0.07400
C1569       C  0.63835188  0.35404876  0.22372490     0.43100
C1570       C  0.49628697  0.39051716  0.31944219    -0.05900
Co1571     Co  0.56026716  0.36915929  0.26971079     0.73800
N1572       N  0.49458691  0.38577838  0.21946922    -0.46100
C1573       C  0.64123725  0.51135717  0.31052622     0.43400
N1574       N  0.62511225  0.34830814  0.29561428    -0.46100
Co1575     Co  0.55921574  0.43029381  0.23039768     0.73900
C1576       C  0.62448367  0.47422675  0.21614999    -0.06400
C1577       C  0.49696260  0.02228369  0.29161832    -0.06000
N1578       N  0.59922803  0.39709525  0.30565717    -0.25500
N1579       N  0.49757998  0.02028225  0.23999626    -0.46300
H1580       H  0.63067638  0.04435881  0.28175228     0.07400
C1581       C  0.62300390  0.34393446  0.24324218    -0.06400
Cl1582     Cl  0.56021711  0.43321723  0.26778211    -0.49400
C1583       C  0.97682408  0.35724604  0.22632340     0.43100
H1584       H  0.63077926  0.40788169  0.33209235     0.07400
N1585       N  0.62079959  0.38286643  0.21711253    -0.46100
C1586       C  0.68694581  0.31125468  0.17969344     0.03700
C1587       C  0.70978897  0.28854562  0.19049342    -0.12500
C1588       C  0.70942101  0.28777632  0.21184184     0.01200
C1589       C  0.68688474  0.31045375  0.22235546    -0.11000
C1590       C  0.66455730  0.33367295  0.21201625     0.03700
C1591       C  0.66520014  0.33463071  0.19072315    -0.10400
H1592       H  0.72622259  0.26998675  0.18235616     0.09300
H1593       H  0.68642495  0.30974181  0.23879218     0.06800
H1594       H  0.64710238  0.35209520  0.18297833     0.06600
C1595       C  0.92379757  0.04669351  0.35376440     0.03700
C1596       C  0.94864463  0.02644866  0.34292650    -0.12500
C1597       C  0.95303834  0.03110207  0.32195557     0.01200
C1598       C  0.93220014  0.05577848  0.31170043    -0.11000
C1599       C  0.90736690  0.07621486  0.32208631     0.03700
C1600       C  0.90288195  0.07130397  0.34311059    -0.10400
H1601       H  0.46494031  0.00727595  0.35066705     0.09300
H1602       H  0.93529441  0.05901922  0.29546637     0.06800
H1603       H  0.88387005  0.08728291  0.35123368     0.06600
C1604       C  0.68507178  0.05695043  0.35511184     0.03700
C1605       C  0.70994980  0.07807176  0.34485259    -0.12500
C1606       C  0.71236167  0.07753281  0.32362762     0.01200
C1607       C  0.69031223  0.05507634  0.31256614    -0.11000
C1608       C  0.66641611  0.03265071  0.32254317     0.03700
C1609       C  0.66424572  0.03329303  0.34383188    -0.10400
H1610       H  0.72583223  0.09670044  0.35326418     0.09300
H1611       H  0.69154210  0.05535677  0.29612038     0.06800
H1612       H  0.64461527  0.01706723  0.35130809     0.06600
C1613       C  0.70333069  0.04243945  0.18255399     0.03700
C1614       C  0.72271157  0.06707006  0.19389705    -0.12500
C1615       C  0.71555483  0.07216651  0.21465213     0.01200
C1616       C  0.68951589  0.05158924  0.22417218    -0.11000
C1617       C  0.67067357  0.02623394  0.21323333     0.03700
C1618       C  0.67775943  0.02167569  0.19251998    -0.10400
H1619       H  0.74246553  0.08322442  0.18639326     0.09300
H1620       H  0.68381713  0.05526613  0.24014294     0.06800
H1621       H  0.66274902  0.00239381  0.18418044     0.06600
C1622       C  0.73475194  0.26424070  0.31288221     0.43000
N1623       N  0.74760350  0.22245252  0.29219868     0.01900
C1624       C  0.89854765  0.12003120  0.29162789    -0.06000
H1625       H  0.92234790  0.25240486  0.28188586     0.07400
C1626       C  0.85066675  0.24783637  0.21587724    -0.06300
Co1627     Co  0.81293227  0.18400400  0.30518103     0.74200
N1628       N  0.87522641  0.22229668  0.28819697    -0.25500
Co1629     Co  0.87389232  0.18397185  0.26577206     0.74100
C1630       C  0.88285638  0.26532042  0.22285573     0.43100
N1631       N  0.76637193  0.22055880  0.23130821     0.01500
N1632       N  0.87082454  0.22231768  0.24296293     0.01600
N1633       N  0.85917897  0.12125350  0.31760066    -0.46400
H1634       H  0.78396510  0.25269604  0.33244883     0.07400
N1635       N  0.85253821  0.22221708  0.30346211     0.01900
N1636       N  0.87186719  0.14520082  0.24355244     0.01600
C1637       C  0.88589626  0.10320417  0.22344084     0.43200
N1638       N  0.74361932  0.22090453  0.24654689    -0.25000
C1639       C  0.76708948  0.12028285  0.31988335    -0.05900
N1640       N  0.72379935  0.24728240  0.29597420    -0.46100
N1641       N  0.89613778  0.12074260  0.24019715    -0.46300
C1642       C  0.73472629  0.10324783  0.31282298     0.43000
N1643       N  0.85226880  0.14580533  0.30378494     0.01900
N1644       N  0.74451177  0.14415148  0.24742347    -0.25000
N1645       N  0.77340599  0.22209307  0.30570208    -0.25500
N1646       N  0.76771577  0.14403384  0.23240987     0.01500
H1647       H  0.69960450  0.11121339  0.25443702     0.07400
H1648       H  0.83736991  0.11382902  0.20313377     0.07400
N1649       N  0.87515060  0.14587151  0.28861560    -0.25500
N1650       N  0.84530485  0.22167196  0.22931055    -0.25100
N1651       N  0.74803377  0.14531801  0.29244563     0.01900
C1652       C  0.88948262  0.26306685  0.31067323     0.43300
C1653       C  0.71954946  0.24598158  0.24306118    -0.06400
N1654       N  0.84641738  0.14509900  0.22988143    -0.25100
H1655       H  0.83435613  0.25345858  0.20278320     0.07400
N1656       N  0.86047863  0.24583285  0.31748301    -0.46400
H1657       H  0.69666458  0.25122509  0.25245378     0.07400
C1658       C  0.73377948  0.10023645  0.22607805     0.43100
C1659       C  0.76763459  0.24747681  0.31934252    -0.05900
Co1660     Co  0.74520465  0.18333268  0.26968698     0.73800
N1661       N  0.75868796  0.24402688  0.21699257    -0.46100
C1662       C  0.88790000  0.10372568  0.31082148     0.43400
N1663       N  0.72433479  0.12037130  0.29588598    -0.46100
Co1664     Co  0.80638944  0.18285265  0.23031032     0.73900
C1665       C  0.85302118  0.11951566  0.21644989    -0.06400
C1666       C  0.89937402  0.24746194  0.29129732    -0.06000
N1667       N  0.77338869  0.14580976  0.30618363    -0.25500
N1668       N  0.89383863  0.24797559  0.23964630    -0.46300
H1669       H  0.92113089  0.11463419  0.28203545     0.07400
C1670       C  0.72204925  0.11722086  0.24481763    -0.06400
Cl1671     Cl  0.80958238  0.18365311  0.26774211    -0.49400
C1672       C  0.72964683  0.26132288  0.22351111     0.43100
H1673       H  0.78273208  0.11490959  0.33327927     0.07400
N1674       N  0.76203646  0.11849695  0.21920447    -0.46100
N1675       N  0.81126250  0.44173415  0.55159638    -0.36100
N1676       N  0.78064242  0.39448731  0.52102736    -0.56600
N1677       N  0.82030962  0.43256651  0.48984873    -0.36100
N1678       N  0.85499842  0.47584596  0.52055538    -0.56600
C1679       C  0.79434456  0.41821748  0.56366730     0.27500
C1680       C  0.83398749  0.45996675  0.56343428     0.27500
C1681       C  0.80490272  0.40762479  0.47823368     0.27500
C1682       C  0.84363081  0.45032802  0.47802111     0.27500
C1683       C  0.76144741  0.38397403  0.53729046     0.36100
C1684       C  0.76576446  0.37951006  0.50452486     0.36100
C1685       C  0.86518818  0.49520875  0.53663285     0.36100
C1686       C  0.86861866  0.49167682  0.50388676     0.36100
C1687       C  0.80606850  0.42196327  0.58350045    -0.21400
C1688       C  0.83100886  0.44823205  0.58335292    -0.21400
C1689       C  0.81874989  0.40961164  0.45872019    -0.21300
C1690       C  0.84308959  0.43639428  0.45859770    -0.21300
C1691       C  0.73475865  0.36137481  0.53117230    -0.22400
C1692       C  0.73749123  0.35855977  0.51041238    -0.22400
C1693       C  0.88615634  0.52307538  0.53021543    -0.22400
C1694       C  0.88826407  0.52087987  0.50943639    -0.22400
C1695       C  0.76776224  0.39417103  0.55758893    -0.17800
C1696       C  0.85667156  0.48760779  0.55705719    -0.17800
C1697       C  0.86400158  0.48001371  0.48374536    -0.17800
C1698       C  0.77721271  0.38451107  0.48422005    -0.17800
H1699       H  0.79768412  0.40715502  0.59674599     0.15200
H1700       H  0.84538734  0.45753166  0.59646979     0.15200
H1701       H  0.81178118  0.39380457  0.44572041     0.15200
H1702       H  0.85828581  0.44490101  0.44552186     0.15200
H1703       H  0.71519449  0.34846425  0.54064803     0.13400
H1704       H  0.72046399  0.34306422  0.50075086     0.13400
H1705       H  0.89883849  0.04287075  0.53939791     0.13400
H1706       H  0.90280844  0.03859134  0.49943656     0.13400
H1707       H  0.80619971  0.44623838  0.53639647     0.26700
H1708       H  0.81380663  0.43852331  0.50461665     0.26700
N1709       N  0.56116582  0.18564447  0.05058668    -0.36100
N1710       N  0.59663114  0.22870299  0.01970052    -0.56600
N1711       N  0.55083466  0.19734865  0.98894843    -0.36100
N1712       N  0.51479158  0.15475114  0.01983281    -0.56600
C1713       C  0.57937045  0.20834206  0.06246742     0.27500
C1714       C  0.53682178  0.16944645  0.06254726     0.27500
C1715       C  0.57216641  0.21696000  0.97679350     0.27500
C1716       C  0.52969596  0.17785319  0.97679763     0.27500
C1717       C  0.61589084  0.23873634  0.03589766     0.36100
C1718       C  0.61165291  0.24378586  0.00320540     0.36100
C1719       C  0.50246263  0.13686693  0.03614569     0.36100
C1720       C  0.49843339  0.14139090  0.00336404     0.36100
C1721       C  0.56678146  0.20601963  0.08223752    -0.21400
C1722       C  0.54005363  0.18157293  0.08228471    -0.21400
C1723       C  0.56390712  0.21032200  0.95664975    -0.21300
C1724       C  0.53744299  0.18572753  0.95664361    -0.21300
C1725       C  0.64338677  0.26044017  0.02968442    -0.22400
C1726       C  0.64067440  0.26367688  0.00895865    -0.22400
C1727       C  0.97783466  0.11206082  0.03005437    -0.22400
C1728       C  0.97522235  0.11497820  0.00928625    -0.22400
C1729       C  0.60764270  0.23055500  0.05629913    -0.17800
C1730       C  0.51217618  0.14339195  0.05649597    -0.17800
C1731       C  0.50419726  0.15240711  0.98305510    -0.17800
C1732       C  0.59974424  0.23991962  0.98302233    -0.17800
H1733       H  0.57580397  0.22050879  0.09534642     0.15200
H1734       H  0.52455483  0.17381194  0.09540308     0.15200
H1735       H  0.57621640  0.22131309  0.94319178     0.15200
H1736       H  0.52593153  0.17444551  0.94314140     0.15200
H1737       H  0.66308633  0.27296744  0.03911318     0.13400
H1738       H  0.65808519  0.27892241  0.99925065     0.13400
H1739       H  0.96309489  0.09394379  0.03957806     0.13400
H1740       H  0.95824517  0.09936631  0.99965735     0.13400
H1741       H  0.56615629  0.18029283  0.03544631     0.26700
H1742       H  0.55068401  0.19732201  0.00459009     0.26700
N1743       N  0.55825321  0.18514340  0.48464112    -0.36100
N1744       N  0.59606563  0.14455145  0.51529280    -0.56600
N1745       N  0.55836634  0.18374087  0.54668792    -0.36100
N1746       N  0.51696352  0.22095576  0.51613584    -0.56600
C1747       C  0.57426877  0.16092269  0.47277205     0.27500
C1748       C  0.53352440  0.20155692  0.47321503     0.27500
C1749       C  0.57501282  0.15922067  0.55813654     0.27500
C1750       C  0.53369838  0.19924368  0.55856276     0.27500
C1751       C  0.61360505  0.13304509  0.49873278     0.36100
C1752       C  0.61412566  0.13272497  0.53162074     0.36100
C1753       C  0.50661463  0.23996170  0.49982219     0.36100
C1754       C  0.50636151  0.23894467  0.53270682     0.36100
C1755       C  0.55970584  0.16221816  0.45345552    -0.21400
C1756       C  0.53402376  0.18779797  0.45373663    -0.21400
C1757       C  0.56089327  0.15936331  0.57761488    -0.21300
C1758       C  0.53490236  0.18454627  0.57788003    -0.21300
C1759       C  0.64259514  0.11309079  0.50456092    -0.22400
C1760       C  0.64294534  0.11292360  0.52543693    -0.22400
C1761       C  0.98864766  0.26983278  0.50603923    -0.22400
C1762       C  0.98851050  0.26919320  0.52691955    -0.22400
C1763       C  0.60293692  0.13903099  0.47847376    -0.17800
C1764       C  0.51213709  0.23013720  0.47942029    -0.17800
C1765       C  0.51181953  0.22789079  0.55294534    -0.17800
C1766       C  0.60407065  0.13827007  0.55199720    -0.17800
H1767       H  0.56705664  0.14664289  0.44040302     0.15200
H1768       H  0.51786910  0.19564796  0.44093941     0.15200
H1769       H  0.56873462  0.14334024  0.59046535     0.15200
H1770       H  0.51908271  0.19151458  0.59096334     0.15200
H1771       H  0.66136395  0.09984095  0.49480617     0.13400
H1772       H  0.66199382  0.09947662  0.53496192     0.13400
H1773       H  0.97699498  0.29002755  0.49652814     0.13400
H1774       H  0.97677045  0.28878593  0.53670884     0.13400
H1775       H  0.56526905  0.19174346  0.49928787     0.26700
H1776       H  0.56512706  0.19110808  0.53206510     0.26700
N1777       N  0.82269820  0.44769373  0.98449434    -0.36100
N1778       N  0.85494192  0.40280216  0.01564493    -0.56600
N1779       N  0.81458713  0.44056030  0.04636265    -0.36100
N1780       N  0.77959910  0.48270481  0.01540926    -0.56600
C1781       C  0.83872164  0.42289995  0.97295967     0.27500
C1782       C  0.79794166  0.46370288  0.97276166     0.27500
C1783       C  0.82874122  0.41461010  0.05788916     0.27500
C1784       C  0.79003791  0.45715309  0.05781150     0.27500
C1785       C  0.87436223  0.39219656  0.99959212     0.36100
C1786       C  0.87002407  0.38849953  0.03232608     0.36100
C1787       C  0.76913088  0.50146251  0.99903569     0.36100
C1788       C  0.76682169  0.49945232  0.03191350     0.36100
C1789       C  0.82450490  0.42370273  0.95357182    -0.21400
C1790       C  0.79885429  0.44932630  0.95344671    -0.21400
C1791       C  0.81288455  0.41475313  0.07692847    -0.21300
C1792       C  0.78854844  0.44148435  0.07686945    -0.21300
C1793       C  0.90163190  0.37046727  0.00604504    -0.22400
C1794       C  0.89886924  0.36812106  0.02682944    -0.22400
C1795       C  0.74922621  0.03030026  0.00513249    -0.22400
C1796       C  0.74788713  0.02916184  0.02600449    -0.22400
C1797       C  0.86637917  0.40001469  0.97914530    -0.17800
C1798       C  0.77519097  0.49159955  0.97867832    -0.17800
C1799       C  0.77052489  0.48742733  0.05212070    -0.17800
C1800       C  0.85727283  0.39245685  0.05233918    -0.17800
H1801       H  0.83162822  0.40728469  0.94082653     0.15200
H1802       H  0.78264560  0.45641332  0.94053460     0.15200
H1803       H  0.81859851  0.39787470  0.08978042     0.15200
H1804       H  0.77208915  0.44884892  0.08961587     0.15200
H1805       H  0.92115179  0.35731608  0.99673771     0.13400
H1806       H  0.91585057  0.35283812  0.03672373     0.13400
H1807       H  0.73652817  0.04971632  0.99552535     0.13400
H1808       H  0.73391948  0.04746362  0.03566936     0.13400
H1809       H  0.82940848  0.45432357  0.99922685     0.26700
H1810       H  0.82294342  0.44809214  0.03204809     0.26700
C1811       C  0.93940045  0.31457416  0.85518974     0.03700
C1812       C  0.91834744  0.28997158  0.84476680    -0.12500
C1813       C  0.91862901  0.28878640  0.82344249     0.01200
C1814       C  0.94081991  0.31164591  0.81253837    -0.11000
C1815       C  0.96301666  0.33528893  0.82267006     0.03700
C1816       C  0.96247414  0.33634331  0.84395704    -0.10400
H1817       H  0.89998456  0.27337585  0.85300216     0.09300
H1818       H  0.94049024  0.31125136  0.79608435     0.06800
H1819       H  0.97855384  0.35566117  0.85170646     0.06600
C1820       C  0.94786138  0.08126245  0.85371335     0.03700
C1821       C  0.96787297  0.05554161  0.84342862    -0.12500
C1822       C  0.96199497  0.04905369  0.82271134     0.01200
C1823       C  0.93626964  0.06852220  0.81234506    -0.11000
C1824       C  0.91647998  0.09430589  0.82224223     0.03700
C1825       C  0.92251137  0.10077488  0.84285747    -0.10400
H1826       H  0.98775226  0.04042271  0.85140986     0.09300
H1827       H  0.93198344  0.06399445  0.79635009     0.06800
H1828       H  0.90687840  0.12054738  0.85055166     0.06600
C1829       C  0.68552844  0.07133888  0.85640956     0.03700
C1830       C  0.70576409  0.09506328  0.84458656    -0.12500
C1831       C  0.70404683  0.09469272  0.82330918     0.01200
C1832       C  0.68070309  0.07148085  0.81375628    -0.11000
C1833       C  0.65892864  0.04895577  0.82516501     0.03700
C1834       C  0.66123595  0.04910635  0.84649840    -0.10400
H1835       H  0.72457773  0.11247566  0.85167338     0.09300
H1836       H  0.67961224  0.07073297  0.79731945     0.06800
H1837       H  0.64572257  0.03044091  0.85525375     0.06600
C1838       C  0.67100409  0.30163020  0.85402284     0.03700
C1839       C  0.69604662  0.28197580  0.84316521    -0.12500
C1840       C  0.70268449  0.28883184  0.82254816     0.01200
C1841       C  0.68377149  0.31570851  0.81262196    -0.11000
C1842       C  0.65781439  0.33495387  0.82311490     0.03700
C1843       C  0.65169626  0.32773114  0.84376753    -0.10400
H1844       H  0.71107171  0.26176115  0.85081110     0.09300
H1845       H  0.68879781  0.32120413  0.79671155     0.06800
H1846       H  0.63233082  0.34299646  0.85204149     0.06600
C1847       C  0.67139630  0.08203944  0.68191927     0.03700
C1848       C  0.69622613  0.10346611  0.69178022    -0.12500
C1849       C  0.70234197  0.09968329  0.71267720     0.01200
C1850       C  0.68325065  0.07451175  0.72381216    -0.11000
C1851       C  0.65779858  0.05349428  0.71434432     0.03700
C1852       C  0.65186613  0.05746967  0.69344718    -0.10400
H1853       H  0.71148166  0.12240890  0.68308567     0.09300
H1854       H  0.68804274  0.07155660  0.73994159     0.06800
H1855       H  0.63233766  0.04094571  0.68627072     0.06600
C1856       C  0.93610217  0.06889320  0.68012219     0.03700
C1857       C  0.91494000  0.09285142  0.69084825    -0.12500
C1858       C  0.91539413  0.09364245  0.71214547     0.01200
C1859       C  0.93759912  0.07038553  0.72281097    -0.11000
C1860       C  0.96033765  0.04758789  0.71230552     0.03700
C1861       C  0.95961584  0.04714646  0.69099943    -0.10400
H1862       H  0.89666009  0.10963903  0.68265092     0.09300
H1863       H  0.93749023  0.07032506  0.73927068     0.06800
H1864       H  0.97589733  0.02824902  0.68310852     0.06600
C1865       C  0.89302120  0.26671335  0.81239131     0.43000
N1866       N  0.85072194  0.25418467  0.79197979     0.01900
C1867       C  0.74480711  0.10573273  0.79162322    -0.06000
H1868       H  0.87740718  0.08073281  0.78244827     0.07400
C1869       C  0.87480795  0.14972576  0.71609053    -0.06300
Co1870     Co  0.81053086  0.19020368  0.80504196     0.74200
N1871       N  0.84764450  0.12764976  0.78867323    -0.25500
Co1872     Co  0.80980724  0.12983016  0.76593748     0.74100
C1873       C  0.89071754  0.11681477  0.72320160     0.43100
N1874       N  0.85092609  0.23574493  0.73177009     0.01500
N1875       N  0.84904800  0.13166451  0.74358937     0.01600
N1876       N  0.74716947  0.14424107  0.81766128    -0.46400
H1877       H  0.88041931  0.21886988  0.83282929     0.07400
N1878       N  0.84813515  0.15045178  0.80369647     0.01900
N1879       N  0.77180646  0.13326500  0.74328756     0.01600
C1880       C  0.72976820  0.12056008  0.72289773     0.43200
N1881       N  0.85088743  0.25845418  0.74685883    -0.25000
C1882       C  0.74654622  0.23553797  0.81862207    -0.05900
N1883       N  0.87608725  0.27741660  0.79541995    -0.46100
N1884       N  0.74654850  0.10998510  0.73990524    -0.46300
C1885       C  0.73004461  0.26827125  0.81179034     0.43000
N1886       N  0.77129193  0.15156956  0.80360347     0.01900
N1887       N  0.77390586  0.25925286  0.74682421    -0.25000
N1888       N  0.84975091  0.22886091  0.80576147    -0.25500
N1889       N  0.77383139  0.23682652  0.73159201     0.01500
H1890       H  0.74246949  0.30487987  0.75369844     0.07400
H1891       H  0.74210546  0.16850598  0.70243240     0.07400
N1892       N  0.77084897  0.12905282  0.78842407    -0.25500
N1893       N  0.84944570  0.15691204  0.72973681    -0.25100
N1894       N  0.77312544  0.25563381  0.79187992     0.01900
C1895       C  0.88905190  0.11370409  0.81097688     0.43300
C1896       C  0.87714078  0.28157075  0.74394528    -0.06400
N1897       N  0.77278489  0.15849674  0.72945859    -0.25100
H1898       H  0.88048339  0.16494929  0.70254771     0.07400
N1899       N  0.87235096  0.14289785  0.81755566    -0.46400
H1900       H  0.88264224  0.30392241  0.75351888     0.07400
C1901       C  0.73148435  0.27245428  0.72495414     0.43100
C1902       C  0.87542615  0.23460790  0.81940806    -0.05900
Co1903     Co  0.81218202  0.25758479  0.76942002     0.73800
N1904       N  0.87596635  0.24246327  0.71814854    -0.46100
C1905       C  0.72905592  0.11589371  0.81098924     0.43400
N1906       N  0.74801184  0.27930177  0.79517900    -0.46100
Co1907     Co  0.81180303  0.19708347  0.73017021     0.73900
C1908       C  0.74716759  0.15270535  0.71581846    -0.06400
C1909       C  0.87267833  0.10347114  0.79186510    -0.06000
N1910       N  0.77283669  0.22992876  0.80541588    -0.25500
N1911       N  0.87317767  0.10710976  0.74019382    -0.46300
H1912       H  0.73933531  0.08306443  0.78228445     0.07400
C1913       C  0.74788890  0.28256814  0.74406084    -0.06400
Cl1914     Cl  0.81111842  0.19367079  0.76763926    -0.49400
C1915       C  0.89378756  0.27092623  0.72492167     0.43100
H1916       H  0.74040495  0.21903523  0.83158210     0.07400
N1917       N  0.74916641  0.24413241  0.71790527    -0.46100
C1918       C  0.95557077  0.30097015  0.68258200     0.03700
C1919       C  0.97539350  0.32661302  0.69287857    -0.12500
C1920       C  0.96885940  0.33407882  0.71334581     0.01200
C1921       C  0.94227381  0.31553285  0.72369633    -0.11000
C1922       C  0.92235740  0.28953319  0.71382624     0.03700
C1923       C  0.92922647  0.28230939  0.69326448    -0.10400
H1924       H  0.99519526  0.34176546  0.68487189     0.09300
H1925       H  0.93730056  0.32133260  0.73951962     0.06800
H1926       H  0.91372114  0.26254892  0.68550747     0.06600
C1927       C  0.68393294  0.31817485  0.68158560     0.03700
C1928       C  0.66099941  0.34017422  0.69256362    -0.12500
C1929       C  0.66074033  0.33948247  0.71383612     0.01200
C1930       C  0.68276299  0.31593611  0.72417270    -0.11000
C1931       C  0.70531012  0.29334342  0.71354553     0.03700
C1932       C  0.70545918  0.29407547  0.69223089    -0.10400
H1933       H  0.64488646  0.35935157  0.68460087     0.09300
H1934       H  0.68285621  0.31569780  0.74062222     0.06800
H1935       H  0.72423805  0.27781644  0.68416827     0.06600
C1936       C  0.63732645  0.36293449  0.81278688     0.43000
N1937       N  0.62397749  0.40558783  0.79275932     0.01900
C1938       C  0.97137156  0.00527812  0.79253783    -0.06000
H1939       H  0.95099331  0.37200565  0.78218632     0.07400
C1940       C  0.52099008  0.38000694  0.71680292    -0.06300
Co1941     Co  0.55824459  0.44274932  0.80598402     0.74200
N1942       N  0.49669549  0.40373086  0.78893564    -0.25500
Co1943     Co  0.99717226  0.44261024  0.76658776     0.74100
C1944       C  0.98878000  0.36222560  0.72369014     0.43100
N1945       N  0.60472584  0.40752504  0.73242591     0.01500
N1946       N  0.50045311  0.40474008  0.74386915     0.01600
N1947       N  0.51083110  0.00463723  0.81839619    -0.46400
H1948       H  0.58820121  0.37305334  0.83278912     0.07400
N1949       N  0.51929768  0.40386160  0.80418651     0.01900
N1950       N  0.99857626  0.48174393  0.74419503     0.01600
C1951       C  0.98328318  0.02267617  0.72349671     0.43200
N1952       N  0.62749057  0.40732631  0.74759939    -0.25000
C1953       C  0.60414135  0.00593065  0.82125818    -0.05900
N1954       N  0.64798824  0.38077581  0.79605867    -0.46100
N1955       N  0.97359289  0.00540341  0.74059762    -0.46300
C1956       C  0.63675170  0.02302915  0.81442354     0.43000
N1957       N  0.51831896  0.48045105  0.80454780     0.01900
N1958       N  0.62621975  0.48386488  0.74807347    -0.25000
N1959       N  0.59829278  0.40516533  0.80636544    -0.25500
N1960       N  0.60318833  0.48397864  0.73301868     0.01500
H1961       H  0.67212048  0.01536439  0.75455499     0.07400
H1962       H  0.53179673  0.01253979  0.70306433     0.07400
N1963       N  0.99544805  0.48019105  0.78941758    -0.25500
N1964       N  0.52606932  0.40585598  0.73024660    -0.25100
N1965       N  0.62274844  0.48258753  0.79330272     0.01900
C1966       C  0.48389191  0.36121502  0.81092326     0.43300
C1967       C  0.65103180  0.38160884  0.74457681    -0.06400
N1968       N  0.52400511  0.48218711  0.73043362    -0.25100
H1969       H  0.53743837  0.37490478  0.70369400     0.07400
N1970       N  0.51217671  0.37921189  0.81793260    -0.46400
H1971       H  0.67362675  0.37598066  0.75410682     0.07400
C1972       C  0.63839322  0.02651627  0.72610883     0.43100
C1973       C  0.60441751  0.37916512  0.81969254    -0.05900
Co1974     Co  0.62578650  0.44486788  0.77044752     0.73800
N1975       N  0.61190985  0.38336847  0.71858192    -0.46100
C1976       C  0.98162220  0.02151988  0.81167974     0.43400
N1977       N  0.64678120  0.00698280  0.79710869    -0.46100
Co1978     Co  0.56459477  0.44496705  0.73111276     0.73900
C1979       C  0.51653267  0.00703296  0.71662312    -0.06400
C1980       C  0.97355495  0.37748106  0.79173860    -0.06000
N1981       N  0.59743122  0.48140691  0.80712401    -0.25500
N1982       N  0.97750360  0.37910695  0.74048459    -0.46300
H1983       H  0.94866458  0.01020579  0.78297798     0.07400
C1984       C  0.64937593  0.00997933  0.74513205    -0.06400
Cl1985     Cl  0.56146751  0.44389519  0.76853602    -0.49400
C1986       C  0.64053476  0.36572169  0.72541110     0.41100
H1987       H  0.58876600  0.01036849  0.83487097     0.07400
N1988       N  0.60975463  0.00879883  0.71940311    -0.46100
C1989       C  0.74384255  0.04368873  0.93836665     0.30300
C1990       C  0.74655153  0.06887792  0.92280891    -0.36000
C1991       C  0.72131673  0.06663143  0.90727479     0.16300
C1992       C  0.69506964  0.04146517  0.90700289     0.22100
C1993       C  0.69158684  0.01696159  0.92295284    -0.34100
C1994       C  0.71697705  0.01905151  0.93846612     0.16200
O1995       O  0.76717728  0.03823823  0.95293602    -0.26200
C1996       C  0.75484215  0.50997293  0.96259382     0.06000
C1997       C  0.72353892  0.49705887  0.95443705    -0.31000
O1998       O  0.67763131  0.04112643  0.88961459    -0.22900
C1999       C  0.69276604  0.06655714  0.87854778    -0.02900
C2000       C  0.71981327  0.08357217  0.88908477    -0.17300
H2001       H  0.76820426  0.08749766  0.92216650     0.20700
H2002       H  0.67165940  0.49629336  0.92271856     0.19100
H2003       H  0.70933369  0.47345816  0.95878260     0.19000
H2004       H  0.73802862  0.10352514  0.88376788     0.14900
C2005       C  0.89581049  0.34546511  0.93983684     0.30300
C2006       C  0.89231513  0.31822299  0.92564995    -0.36000
C2007       C  0.91269464  0.32151716  0.90788838     0.16300
C2008       C  0.93536383  0.34937217  0.90451907     0.22100
C2009       C  0.93946717  0.37616693  0.91887743    -0.34100
C2010       C  0.91870058  0.37321786  0.93645164     0.16200
O2011       O  0.87579370  0.35019646  0.95602648    -0.26200
C2012       C  0.88612714  0.38125952  0.96309607     0.06000
C2013       C  0.91279642  0.39675917  0.95158873    -0.31000
O2014       O  0.94884757  0.34936682  0.88606987    -0.22900
C2015       C  0.93473394  0.32118459  0.87728547    -0.02900
C2016       C  0.91214604  0.30265180  0.89033126    -0.17300
H2017       H  0.87332789  0.29717760  0.92771299     0.20700
H2018       H  0.95597467  0.39891437  0.91594464     0.19100
H2019       H  0.92410611  0.42274424  0.95326096     0.19000
H2020       H  0.89588409  0.27994199  0.88713988     0.14900
C2021       C  0.63294820  0.09278239  0.59484015     0.30300
C2022       C  0.62786255  0.07006134  0.61139826    -0.36000
C2023       C  0.64659732  0.07835255  0.62905251     0.16300
C2024       C  0.66907952  0.10681160  0.63034700     0.22100
C2025       C  0.67486672  0.12910848  0.61362761    -0.34100
C2026       C  0.65591813  0.12098064  0.59597393     0.16200
O2027       O  0.61384347  0.09324618  0.57813618    -0.26200
C2028       C  0.62506025  0.12178189  0.56831315     0.06000
C2029       C  0.65133372  0.13994761  0.57861530    -0.31000
O2030       O  0.68122641  0.11144389  0.64889008    -0.22900
C2031       C  0.66627529  0.08564012  0.65967926    -0.02900
C2032       C  0.64467701  0.06406987  0.64794915    -0.17300
H2033       H  0.60884167  0.04878543  0.61097829     0.20700
H2034       H  0.69129702  0.15235314  0.61468254     0.19100
H2035       H  0.66230982  0.16550900  0.57493237     0.19000
H2036       H  0.62873806  0.04179007  0.65255914     0.14900
C2037       C  0.95486566  0.27448797  0.63129013     0.30300
C2038       C  0.94334462  0.25556707  0.61425745    -0.36000
C2039       C  0.96517444  0.25753891  0.59698547     0.16300
C2040       C  0.99612864  0.27685480  0.59657024     0.22100
C2041       C  0.00718665  0.29625236  0.61340845    -0.34100
C2042       C  0.98552388  0.29410096  0.63061984     0.16200
O2043       O  0.94016785  0.27434212  0.64950349    -0.26200
C2044       C  0.96168989  0.29422891  0.66064645     0.06000
C2045       C  0.99037980  0.30714650  0.64953020    -0.31000
O2046       O  0.51504455  0.27116881  0.58011845    -0.22900
C2047       C  0.49586578  0.24831484  0.56964382    -0.02900
C2048       C  0.96442204  0.23899335  0.57931562    -0.17300
H2049       H  0.91999849  0.23908868  0.61476293     0.20700
H2050       H  0.53201473  0.31045423  0.61346564     0.19100
H2051       H  0.01251284  0.32282906  0.65458483     0.19000
H2052       H  0.94585693  0.21869780  0.57499570     0.14900
C2053       C  0.65049075  0.26333117  0.94084636     0.30300
C2054       C  0.67329237  0.25545502  0.92469275    -0.36000
C2055       C  0.66800623  0.27477050  0.90678098     0.16300
C2056       C  0.64246849  0.30046068  0.90495326     0.22100
C2057       C  0.62021389  0.30898304  0.92126000    -0.34100
C2058       C  0.62516846  0.28937545  0.93912267     0.16200
O2059       O  0.64683850  0.24451837  0.95757233    -0.26200
C2060       C  0.61906669  0.25883336  0.96676666     0.06000
C2061       C  0.60469222  0.28705635  0.95609469    -0.31000
O2062       O  0.64039213  0.31330252  0.88637423    -0.22900
C2063       C  0.66491646  0.29564039  0.87605376    -0.02900
C2064       C  0.68298569  0.27130119  0.88812888    -0.17300
H2065       H  0.69223594  0.23415503  0.92558532     0.20700
H2066       H  0.59912495  0.32806742  0.91973263     0.19100
H2067       H  0.58029168  0.30092243  0.95922808     0.19000
H2068       H  0.70352338  0.25292440  0.88392893     0.14900
C2069       C  0.94815333  0.11371884  0.90365279     0.30300
C2070       C  0.94124244  0.13828487  0.91896135    -0.36000
C2071       C  0.95697544  0.13148483  0.93783347     0.16300
C2072       C  0.97816023  0.10250916  0.94138812     0.22100
C2073       C  0.98434031  0.07749824  0.92618371    -0.34100
C2074       C  0.96877157  0.08445042  0.90727012     0.16200
O2075       O  0.93817504  0.11625635  0.88455736    -0.26200
C2076       C  0.95258253  0.08827666  0.87568190     0.06000
C2077       C  0.97188431  0.06745848  0.88919587    -0.31000
O2078       O  0.49494765  0.10438437  0.95888406    -0.22900
C2079       C  0.98412822  0.13472751  0.96672289    -0.02900
C2080       C  0.96004942  0.15243564  0.95441675    -0.17300
H2081       H  0.92624634  0.16203052  0.91604316     0.20700
H2082       H  0.50187230  0.05535287  0.92855542     0.19100
H2083       H  0.98649732  0.04356351  0.88624619     0.19000
H2084       H  0.95008567  0.17892918  0.95624339     0.14900
C2085       C  0.90209571  0.06222814  0.63068031     0.30300
C2086       C  0.87511873  0.06406689  0.61610897    -0.36000
C2087       C  0.87946072  0.04263099  0.59903020     0.16300
C2088       C  0.90842832  0.52113311  0.59642197     0.22100
C2089       C  0.93574292  0.51991407  0.61076290    -0.34100
C2090       C  0.93130313  0.04105569  0.62789789     0.16200
O2091       O  0.90117419  0.07633327  0.64890295    -0.26200
C2092       C  0.93011320  0.06403398  0.65803552     0.06000
C2093       C  0.95009573  0.04225755  0.64546224    -0.31000
O2094       O  0.90517003  0.50026879  0.58063296    -0.22900
C2095       C  0.87375298  0.50869652  0.57302472    -0.02900
C2096       C  0.85659538  0.03489840  0.58375431    -0.17300
H2097       H  0.85137138  0.07940284  0.61852922     0.20700
H2098       H  0.95783634  0.50199464  0.60928035     0.19100
H2099       H  0.97370844  0.02741147  0.64900559     0.19000
H2100       H  0.83002278  0.04477524  0.58151636     0.14900
C2101       C  0.73063239  0.34425458  0.59709131     0.30300
C2102       C  0.72953392  0.31634466  0.61110422    -0.36000
C2103       C  0.71006535  0.32235702  0.62889845     0.16300
C2104       C  0.69244754  0.35348008  0.63250548     0.22100
C2105       C  0.69297926  0.38115129  0.61835180    -0.34100
C2106       C  0.71286656  0.37535246  0.60071688     0.16200
O2107       O  0.75078475  0.34595001  0.58074559    -0.26200
C2108       C  0.74571963  0.37847485  0.57382791     0.06000
C2109       C  0.72237987  0.39795035  0.58560081    -0.31000
O2110       O  0.67933814  0.35501565  0.65100701    -0.22900
C2111       C  0.68873684  0.32458081  0.65953115    -0.02900
C2112       C  0.70764135  0.30302214  0.64631286    -0.17300
H2113       H  0.74463590  0.29248528  0.60887317     0.20700
H2114       H  0.68060993  0.40624002  0.62145199     0.19100
H2115       H  0.71558637  0.42549481  0.58403674     0.19000
H2116       H  0.71983024  0.27780231  0.64935628     0.14900
C2117       C  0.72183938  0.01343363  0.09454927     0.30300
C2118       C  0.69710463  0.00756934  0.11009652    -0.36000
C2119       C  0.70451162  0.02348925  0.12876259     0.16300
C2120       C  0.73393250  0.04417614  0.13191502     0.22100
C2121       C  0.75828563  0.05074075  0.11622760    -0.34100
C2122       C  0.75110523  0.03451023  0.09758782     0.16200
O2123       O  0.72308877  0.99660171  0.07710628    -0.26200
C2124       C  0.75337133  0.50721919  0.06871266     0.06000
C2125       C  0.77191981  0.53078342  0.08076724    -0.31000
O2126       O  0.73714473  0.05394199  0.15102445    -0.22900
C2127       C  0.70948424  0.03918659  0.16033633    -0.02900
C2128       C  0.68814330  0.02014038  0.14705621    -0.17300
H2129       H  0.67486953  0.98995558  0.10817277     0.20700
H2130       H  0.78222781  0.06572520  0.11872147     0.19100
H2131       H  0.79855677  0.54052383  0.07848912     0.19000
H2132       H  0.66445687  0.00514090  0.15026961     0.14900
C2133       C  0.63245948  0.08730580  0.43799067     0.30300
C2134       C  0.62968282  0.06086633  0.42331199    -0.36000
C2135       C  0.65225039  0.06411529  0.40648670     0.16300
C2136       C  0.67602849  0.09138430  0.40428821     0.22100
C2137       C  0.67926524  0.11753108  0.41912691    -0.34100
C2138       C  0.65657990  0.11439816  0.43591031     0.16200
O2139       O  0.61145529  0.09139891  0.45380448    -0.26200
C2140       C  0.62253853  0.12127245  0.46204608     0.06000
C2141       C  0.65050447  0.13677086  0.45159853    -0.31000
O2142       O  0.69186489  0.09124546  0.38645359    -0.22900
C2143       C  0.67816006  0.06350617  0.37698265    -0.02900
C2144       C  0.65353508  0.04544792  0.38893181    -0.17300
H2145       H  0.61004952  0.04020818  0.42442755     0.20700
H2146       H  0.69695143  0.13971299  0.41722466     0.19100
H2147       H  0.66289174  0.16193968  0.45443959     0.19000
H2148       H  0.63721572  0.02314078  0.38501018     0.14900
C2149       C  0.89649956  0.04467898  0.40496753     0.30300
C2150       C  0.87267523  0.04923625  0.42109546    -0.36000
C2151       C  0.88078919  0.03120005  0.43913005     0.16300
C2152       C  0.91049596  0.01033350  0.44123447     0.22100
C2153       C  0.93480535  0.00661713  0.42529313    -0.34100
C2154       C  0.92640645  0.02426960  0.40719060     0.16200
O2155       O  0.89209787  0.05588325  0.38614563    -0.26200
C2156       C  0.91947922  0.04237968  0.37607398     0.06000
C2157       C  0.94185698  0.02270829  0.38857762    -0.31000
O2158       O  0.91009512  0.49145871  0.45816742    -0.22900
C2159       C  0.88001692  0.50084302  0.46711678    -0.02900
C2160       C  0.86083529  0.52550447  0.45605466    -0.17300
H2161       H  0.84833608  0.06391084  0.41928892     0.20700
H2162       H  0.95735437  0.98917768  0.42644493     0.19100
H2163       H  0.96543832  0.00816922  0.38461667     0.19000
H2164       H  0.83429422  0.53488813  0.45901526     0.14900
C2165       C  0.63712888  0.28296053  0.09642940     0.30300
C2166       C  0.63345475  0.30873652  0.11140064    -0.36000
C2167       C  0.65701959  0.30653739  0.12775082     0.16300
C2168       C  0.68257552  0.28081565  0.12931737     0.22100
C2169       C  0.68687911  0.25546066  0.11404301    -0.34100
C2170       C  0.66310094  0.25749933  0.09770346     0.16200
O2171       O  0.61528822  0.27778905  0.08117210    -0.26200
C2172       C  0.62755916  0.24884228  0.07241310     0.06000
C2173       C  0.65727892  0.23501940  0.08198125    -0.31000
O2174       O  0.69816510  0.28070615  0.14724743    -0.22900
C2175       C  0.68244229  0.30672194  0.15737316    -0.02900
C2176       C  0.65699376  0.32403726  0.14567609    -0.17300
H2177       H  0.61222735  0.32783362  0.11097753     0.20700
H2178       H  0.70588255  0.23429584  0.11544395     0.19100
H2179       H  0.67100877  0.21075131  0.07862073     0.19000
H2180       H  0.63863825  0.34441675  0.15009246     0.14900
C2181       C  0.96035934  0.10942851  0.09636717     0.30300
C2182       C  0.93284074  0.10976380  0.11072808    -0.36000
C2183       C  0.93748973  0.08806611  0.12784531     0.16300
C2184       C  0.96698757  0.06724204  0.13054983     0.22100
C2185       C  0.99417695  0.06641051  0.11604408    -0.34100
C2186       C  0.98974308  0.08834508  0.09906237     0.16200
O2187       O  0.96338290  0.13044647  0.08042318    -0.26200
C2188       C  0.99500088  0.12248900  0.07279790     0.06000
C2189       C  0.51257718  0.09655015  0.08376686    -0.31000
O2190       O  0.96792261  0.05231747  0.14864641    -0.22900
C2191       C  0.93870108  0.06368044  0.15785004    -0.02900
C2192       C  0.91849275  0.08572161  0.14539747    -0.17300
H2193       H  0.91037159  0.12722769  0.10923763     0.20700
H2194       H  0.51809011  0.05128761  0.11841314     0.19100
H2195       H  0.53921904  0.08687878  0.08150332     0.19000
H2196       H  0.89461822  0.10004866  0.14903533     0.14900
C2197       C  0.72783201  0.36637691  0.44079133     0.30300
C2198       C  0.70684605  0.37634736  0.42418198    -0.36000
C2199       C  0.71011975  0.35571110  0.40669207     0.16300
C2200       C  0.73230608  0.32703727  0.40558818     0.22100
C2201       C  0.75296489  0.31668149  0.42234591    -0.34100
C2202       C  0.74981524  0.33743594  0.43987589     0.16200
O2203       O  0.73240177  0.38480630  0.45747515    -0.26200
C2204       C  0.75731294  0.36735532  0.46759840     0.06000
C2205       C  0.76902490  0.33748060  0.45743218    -0.31000
O2206       O  0.73272738  0.31286951  0.38729874    -0.22900
C2207       C  0.71045038  0.33268364  0.37644471    -0.02900
C2208       C  0.69564273  0.35977772  0.38791607    -0.17300
H2209       H  0.69043690  0.39966953  0.42452699     0.20700
H2210       H  0.77136979  0.29493299  0.42147854     0.19100
H2211       H  0.79111795  0.32067736  0.46135508     0.19000
H2212       H  0.67755794  0.38026979  0.38320608     0.14900
C2213       C  0.89530211  0.33116531  0.13098790     0.30300
C2214       C  0.87573239  0.32197192  0.11373908    -0.36000
C2215       C  0.88092171  0.34316671  0.09649980     0.16300
C2216       C  0.90367844  0.37159910  0.09631740     0.22100
C2217       C  0.92373811  0.38035910  0.11343791    -0.34100
C2218       C  0.91852045  0.35913426  0.13064237     0.16200
O2219       O  0.89264101  0.31655443  0.14912049    -0.26200
C2220       C  0.91450383  0.33530258  0.16063981     0.06000
C2221       C  0.93143029  0.36215433  0.14979227    -0.31000
O2222       O  0.90055850  0.39086940  0.07975464    -0.22900
C2223       C  0.87590254  0.37435436  0.06905321    -0.02900
C2224       C  0.86293891  0.34429118  0.07861619    -0.17300
H2225       H  0.85653252  0.30084409  0.11404242     0.20700
H2226       H  0.94074339  0.40327252  0.11367410     0.19100
H2227       H  0.94967436  0.38194725  0.15513361     0.19000
H2228       H  0.84066012  0.32823202  0.07413144     0.14900
C2229       C  0.96813639  0.30177679  0.40424258     0.30300
C2230       C  0.49480532  0.30420293  0.41894742    -0.36000
C2231       C  0.49005860  0.28346780  0.43640059     0.16300
C2232       C  0.96094586  0.26200323  0.43924681     0.22100
C2233       C  0.93405778  0.26003902  0.42467285    -0.34100
C2234       C  0.93895712  0.28054358  0.40715316     0.16200
O2235       O  0.96907780  0.31580755  0.38593192    -0.26200
C2236       C  0.94017684  0.30340241  0.37687895     0.06000
C2237       C  0.92026184  0.28151167  0.38953136    -0.31000
O2238       O  0.96378013  0.24191352  0.45552517    -0.22900
C2239       C  0.49489659  0.25090923  0.46328128    -0.02900
C2240       C  0.51246229  0.27658323  0.45205797    -0.17300
H2241       H  0.51850355  0.31964602  0.41645838     0.20700
H2242       H  0.91187712  0.24223891  0.42635972     0.19100
H2243       H  0.89656776  0.26679076  0.38605460     0.19000
H2244       H  0.53899766  0.28654984  0.45427706     0.14900
C2245       C  0.93403851  0.80890000  0.35489099     0.03700
C2246       C  0.91115453  0.78693704  0.34378791    -0.12500
C2247       C  0.91057658  0.78847286  0.32247700     0.01200
C2248       C  0.93252210  0.81255683  0.31231064    -0.11000
C2249       C  0.95422235  0.83557481  0.32321609     0.03700
C2250       C  0.95460979  0.83389021  0.34444650    -0.10400
H2251       H  0.89550419  0.76707820  0.35145939     0.09300
H2252       H  0.93287876  0.81333030  0.29585585     0.06800
H2253       H  0.97262776  0.85060997  0.35278247     0.06600
C2254       C  0.91884261  0.82815780  0.18272272     0.03700
C2255       C  0.94405473  0.84646076  0.19423243    -0.12500
C2256       C  0.94912105  0.83866525  0.21484095     0.01200
C2257       C  0.92857504  0.81237205  0.22409846    -0.11000
C2258       C  0.90300391  0.79396509  0.21296150     0.03700
C2259       C  0.89812069  0.80211938  0.19230678    -0.10400
H2260       H  0.96058165  0.86623500  0.18715450     0.09300
H2261       H  0.93241130  0.80621005  0.24001776     0.06800
H2262       H  0.87878491  0.78764456  0.18357543     0.06600
C2263       C  0.70338078  0.82637868  0.35447660     0.03700
C2264       C  0.72185684  0.79974994  0.34415984    -0.12500
C2265       C  0.71486900  0.79238902  0.32359634     0.01200
C2266       C  0.68876030  0.81187993  0.31333878    -0.11000
C2267       C  0.67038959  0.83902196  0.32321970     0.03700
C2268       C  0.67802002  0.84616262  0.34369943    -0.10400
H2269       H  0.74141524  0.78439103  0.35227761     0.09300
H2270       H  0.68310182  0.80626676  0.29756106     0.06800
H2271       H  0.66337281  0.86656197  0.35133897     0.06600
C2272       C  0.93289783  0.55800776  0.18000735     0.03700
C2273       C  0.90874774  0.57871677  0.19098120    -0.12500
C2274       C  0.90852994  0.57821853  0.21229447     0.01200
C2275       C  0.93213743  0.55604657  0.22273256    -0.11000
C2276       C  0.95485442  0.53350053  0.21200225     0.03700
C2277       C  0.95498502  0.53458754  0.19067990    -0.10400
H2278       H  0.89176887  0.59714571  0.18312506     0.09300
H2279       H  0.93259069  0.55610447  0.23918982     0.06800
H2280       H  0.97372723  0.51851597  0.18241368     0.06600
C2281       C  0.97941566  0.85836799  0.31233721     0.43000
N2282       N  0.52209228  0.87175660  0.29235809     0.01900
C2283       C  0.62529821  0.52155511  0.29121673    -0.06000
H2284       H  0.49182488  0.54486713  0.28208989     0.07400
C2285       C  0.49630652  0.97786558  0.21606057    -0.06300
Co2286     Co  0.56066990  0.93637622  0.30520223     0.74200
N2287       N  0.52256208  0.99864026  0.28860769    -0.25500
Co2288     Co  0.56069300  0.99725465  0.26587537     0.74100
C2289       C  0.48017175  0.51064962  0.22299394     0.43100
N2290       N  0.52028828  0.89171422  0.23265836     0.01500
N2291       N  0.52162915  0.99564250  0.24356495     0.01600
N2292       N  0.62341882  0.98300148  0.31749171    -0.46400
H2293       H  0.49042454  0.90625291  0.33275012     0.07400
N2294       N  0.52223686  0.97565507  0.30370334     0.01900
N2295       N  0.59901048  0.99415180  0.24321112     0.01600
C2296       C  0.64224807  0.00605076  0.22328266     0.43200
N2297       N  0.52089765  0.86840773  0.24759273    -0.25000
C2298       C  0.62531387  0.89170887  0.31908991    -0.05900
N2299       N  0.49706074  0.84808000  0.29561449    -0.46100
N2300       N  0.62476217  0.51699827  0.23994767    -0.46300
C2301       C  0.64254581  0.85933082  0.31241734     0.43000
N2302       N  0.59924057  0.97561097  0.30358323     0.01900
N2303       N  0.59776467  0.86785014  0.24670393    -0.25000
N2304       N  0.52222097  0.89700539  0.30601802    -0.25500
N2305       N  0.59723132  0.89047053  0.23143187     0.01500
H2306       H  0.62818666  0.82111728  0.25270331     0.07400
H2307       H  0.63017503  0.95802205  0.20313248     0.07400
N2308       N  0.59945405  0.99819571  0.28829639    -0.25500
N2309       N  0.52142995  0.97049253  0.22983291    -0.25100
N2310       N  0.59966474  0.87171849  0.29214704     0.01900
C2311       C  0.48033493  0.51146663  0.31067468     0.43300
C2312       C  0.49432336  0.84552559  0.24496222    -0.06400
N2313       N  0.59825185  0.96889365  0.22954659    -0.25100
H2314       H  0.49085674  0.96278575  0.20254361     0.07400
N2315       N  0.49761852  0.98268724  0.31745939    -0.46400
H2316       H  0.48889018  0.82288155  0.25447978     0.07400
C2317       C  0.63825147  0.85396855  0.22374688     0.43100
C2318       C  0.49621717  0.89068846  0.31945531    -0.05900
Co2319     Co  0.56024897  0.86924130  0.26975527     0.73800
N2320       N  0.49465400  0.88570808  0.21946620    -0.46100
C2321       C  0.64125306  0.01149298  0.31057604     0.43400
N2322       N  0.62509876  0.84839320  0.29565932    -0.46100
Co2323     Co  0.55923489  0.93032557  0.23042755     0.73900
C2324       C  0.62457950  0.97418667  0.21621156    -0.06400
C2325       C  0.49688236  0.52214151  0.29159713    -0.06000
N2326       N  0.59922578  0.89718840  0.30569834    -0.25500
N2327       N  0.49745822  0.52016359  0.24001770    -0.46300
H2328       H  0.63063703  0.54424955  0.28171657     0.07400
C2329       C  0.62292933  0.84390805  0.24327999    -0.06400
Cl2330     Cl  0.56023700  0.93329560  0.26781197    -0.49400
C2331       C  0.97694944  0.85712743  0.22631231     0.43100
H2332       H  0.63080936  0.90799784  0.33211750     0.07400
N2333       N  0.62073885  0.88280796  0.21713256    -0.46100
C2334       C  0.68697952  0.81115857  0.17976208     0.03700
C2335       C  0.70984007  0.78851786  0.19059019    -0.12500
C2336       C  0.70942043  0.78777348  0.21193417     0.01200
C2337       C  0.68683141  0.81042904  0.22242358    -0.11000
C2338       C  0.66447922  0.83359008  0.21205711     0.03700
C2339       C  0.66514062  0.83449436  0.19076096    -0.10400
H2340       H  0.72633744  0.76998592  0.18247425     0.09300
H2341       H  0.68634864  0.80974026  0.23886051     0.06800
H2342       H  0.64697337  0.85185594  0.18299221     0.06600
C2343       C  0.92384069  0.54664349  0.35377900     0.03700
C2344       C  0.94867586  0.52640000  0.34293033    -0.12500
C2345       C  0.95301668  0.53102107  0.32195342     0.01200
C2346       C  0.93216633  0.55570583  0.31170726    -0.11000
C2347       C  0.90736020  0.57616187  0.32210709     0.03700
C2348       C  0.90291492  0.57125872  0.34313458    -0.10400
H2349       H  0.46498496  0.50723169  0.35066496     0.09300
H2350       H  0.93522357  0.55893191  0.29546982     0.06800
H2351       H  0.88391343  0.58723666  0.35126629     0.06600
C2352       C  0.68476034  0.55693691  0.35509642     0.03700
C2353       C  0.70965598  0.57808914  0.34486969    -0.12500
C2354       C  0.71220153  0.57750758  0.32365086     0.01200
C2355       C  0.69024629  0.55499489  0.31256266    -0.11000
C2356       C  0.66633056  0.53255152  0.32251282     0.03700
C2357       C  0.66404589  0.53322201  0.34379528    -0.10400
H2358       H  0.72545707  0.59676458  0.35329669     0.09300
H2359       H  0.69156117  0.55524569  0.29611878     0.06800
H2360       H  0.64442094  0.51695760  0.35124804     0.06600
C2361       C  0.70318291  0.54259940  0.18248152     0.03700
C2362       C  0.72262415  0.56714574  0.19385683    -0.12500
C2363       C  0.71550069  0.57216874  0.21462510     0.01200
C2364       C  0.68945889  0.55157323  0.22412826    -0.11000
C2365       C  0.67055003  0.52630272  0.21316180     0.03700
C2366       C  0.67758214  0.52183752  0.19243099    -0.10400
H2367       H  0.74239424  0.58330092  0.18636791     0.09300
H2368       H  0.68380185  0.55517837  0.24010963     0.06800
H2369       H  0.66252326  0.50262057  0.18406819     0.06600
C2370       C  0.73470021  0.76423172  0.31294067     0.43000
N2371       N  0.74754173  0.72241716  0.29226310     0.01900
C2372       C  0.89848956  0.61997954  0.29165635    -0.06000
H2373       H  0.92234455  0.75235293  0.28190408     0.07400
C2374       C  0.85066782  0.74777511  0.21590269    -0.06300
Co2375     Co  0.81289115  0.68397788  0.30523707     0.74200
N2376       N  0.87521304  0.72226045  0.28823428    -0.25500
Co2377     Co  0.87384460  0.68391640  0.26580993     0.74100
C2378       C  0.88288938  0.76522831  0.22286836     0.43100
N2379       N  0.76633716  0.72053857  0.23137851     0.01500
N2380       N  0.87080012  0.72225898  0.24299514     0.01600
N2381       N  0.85915620  0.62120879  0.31764569    -0.46400
H2382       H  0.78393158  0.75270335  0.33249545     0.07400
N2383       N  0.85253523  0.72219859  0.30350652     0.01900
N2384       N  0.87177943  0.64511845  0.24359218     0.01600
C2385       C  0.88571732  0.60304596  0.22350292     0.43200
N2386       N  0.74357781  0.72086944  0.24661389    -0.25000
C2387       C  0.76695753  0.62027136  0.31995444    -0.05900
N2388       N  0.72373963  0.74725430  0.29603852    -0.46100
N2389       N  0.89600055  0.62060535  0.24024644    -0.46300
C2390       C  0.73460153  0.60323262  0.31287311     0.43000
N2391       N  0.85223008  0.64576555  0.30383400     0.01900
N2392       N  0.74445777  0.64409776  0.24746106    -0.25000
N2393       N  0.77335645  0.72207294  0.30576022    -0.25500
N2394       N  0.76765421  0.64400991  0.23244341     0.01500
H2395       H  0.69957167  0.61111328  0.25445691     0.07400
H2396       H  0.83718905  0.61370770  0.20320705     0.07400
N2397       N  0.87509578  0.64582632  0.28865614    -0.25500
N2398       N  0.84527436  0.72162860  0.22934685    -0.25100
N2399       N  0.74797862  0.64527608  0.29249268     0.01900
C2400       C  0.88951638  0.76305084  0.31069722     0.43300
C2401       C  0.71952831  0.74597150  0.24314510    -0.06400
N2402       N  0.84632444  0.64503368  0.22992476    -0.25100
H2403       H  0.83436596  0.75339575  0.20280480     0.07400
N2404       N  0.86050808  0.74582476  0.31751924    -0.46400
H2405       H  0.69664782  0.75121780  0.25254079     0.07400
C2406       C  0.73374147  0.60019909  0.22608538     0.43100
C2407       C  0.76758976  0.74746925  0.31939582    -0.05900
Co2408     Co  0.74515260  0.68328718  0.26974051     0.73800
N2409       N  0.75867813  0.74404210  0.21708066    -0.46100
C2410       C  0.88786719  0.60367360  0.31085259     0.43400
N2411       N  0.72426242  0.62034228  0.29592325    -0.46100
Co2412     Co  0.80633344  0.68282050  0.23035807     0.73900
C2413       C  0.85286874  0.61940577  0.21651050    -0.06400
C2414       C  0.89937723  0.74742212  0.29132293    -0.06000
N2415       N  0.77331062  0.64577866  0.30624621    -0.25500
N2416       N  0.89384760  0.74788399  0.23966491    -0.46300
H2417       H  0.92105829  0.61457843  0.28205351     0.07400
C2418       C  0.72201172  0.61715121  0.24484019    -0.06400
Cl2419     Cl  0.80953280  0.68361572  0.26779289    -0.49400
C2420       C  0.72965289  0.76134827  0.22361089     0.43100
H2421       H  0.78256143  0.61490747  0.33336645     0.07400
N2422       N  0.76198334  0.61849224  0.21922295    -0.46100
N2423       N  0.81130022  0.94187248  0.55156314    -0.36100
N2424       N  0.78068892  0.89449276  0.52105252    -0.56600
N2425       N  0.82035933  0.93246259  0.48982895    -0.36100
N2426       N  0.85505878  0.97586233  0.52048946    -0.56600
C2427       C  0.79434418  0.91842274  0.56366127     0.27500
C2428       C  0.83406668  0.96009946  0.56338137     0.27500
C2429       C  0.80478780  0.90762878  0.47820890     0.27500
C2430       C  0.84346913  0.95038237  0.47794377     0.27500
C2431       C  0.76162289  0.88387105  0.53734037     0.36100
C2432       C  0.76597063  0.87925634  0.50458351     0.36100
C2433       C  0.86534726  0.99520679  0.53655201     0.36100
C2434       C  0.86867193  0.99164427  0.50380623     0.36100
C2435       C  0.80607248  0.92222246  0.58348952    -0.21400
C2436       C  0.83106570  0.94843604  0.58331169    -0.21400
C2437       C  0.81834507  0.90981787  0.45863517    -0.21300
C2438       C  0.84265365  0.93663181  0.45847879    -0.21300
C2439       C  0.73519094  0.86093182  0.53127372    -0.22400
C2440       C  0.73794746  0.85801657  0.51052063    -0.22400
C2441       C  0.88636655  0.02301796  0.53011130    -0.22400
C2442       C  0.88840602  0.02080513  0.50933204    -0.22400
C2443       C  0.76779256  0.89431440  0.55761176    -0.17800
C2444       C  0.85683513  0.98765890  0.55698084    -0.17800
C2445       C  0.86392409  0.98001914  0.48366804    -0.17800
C2446       C  0.77724292  0.88438189  0.48425585    -0.17800
H2447       H  0.79769023  0.90745251  0.59674952     0.15200
H2448       H  0.84548061  0.95773170  0.59641630     0.15200
H2449       H  0.81121276  0.89410420  0.44562542     0.15200
H2450       H  0.85765713  0.94527274  0.44535825     0.15200
H2451       H  0.71577772  0.84785737  0.54077702     0.13400
H2452       H  0.72108781  0.84227526  0.50089496     0.13400
H2453       H  0.89856403  0.54294464  0.53951855     0.13400
H2454       H  0.90266595  0.53869387  0.49955752     0.13400
H2455       H  0.80624925  0.94632193  0.53635774     0.26700
H2456       H  0.81414097  0.93821251  0.50465899     0.26700
N2457       N  0.56094478  0.68593125  0.05059494    -0.36100
N2458       N  0.59631145  0.72915585  0.01973525    -0.56600
N2459       N  0.55068835  0.69765985  0.98893881    -0.36100
N2460       N  0.51455413  0.65510606  0.01982156    -0.56600
C2461       C  0.57910094  0.70865312  0.06248239     0.27500
C2462       C  0.53657826  0.66973530  0.06253967     0.27500
C2463       C  0.57184006  0.71749261  0.97680311     0.27500
C2464       C  0.52940436  0.67834139  0.97678019     0.27500
C2465       C  0.61563695  0.73906348  0.03593378     0.36100
C2466       C  0.61144858  0.74411741  0.00323665     0.36100
C2467       C  0.50234735  0.63708449  0.03611781     0.36100
C2468       C  0.49838016  0.64160974  0.00332745     0.36100
C2469       C  0.56645899  0.70635733  0.08224112    -0.21400
C2470       C  0.53974375  0.68189523  0.08227448    -0.21400
C2471       C  0.56331617  0.71117272  0.95665906    -0.21300
C2472       C  0.53686317  0.68656011  0.95663554    -0.21300
C2473       C  0.64326244  0.76060300  0.02972396    -0.22400
C2474       C  0.64058420  0.76384100  0.00899551    -0.22400
C2475       C  0.97795316  0.61207968  0.02999332    -0.22400
C2476       C  0.97538397  0.61499257  0.00922153    -0.22400
C2477       C  0.60739677  0.73084096  0.05633100    -0.17800
C2478       C  0.51200117  0.64362383  0.05647904    -0.17800
C2479       C  0.50410793  0.65268369  0.98302007    -0.17800
C2480       C  0.59954104  0.74030013  0.98304602    -0.17800
H2481       H  0.57543862  0.72087954  0.09534795     0.15200
H2482       H  0.52421254  0.67414138  0.09538159     0.15200
H2483       H  0.57544562  0.72237602  0.94320560     0.15200
H2484       H  0.52517562  0.67549044  0.94312418     0.15200
H2485       H  0.66305009  0.77298848  0.03915481     0.13400
H2486       H  0.65810426  0.77896265  0.99928803     0.13400
H2487       H  0.96336243  0.59381071  0.03949573     0.13400
H2488       H  0.95858217  0.59923594  0.99957029     0.13400
H2489       H  0.56600298  0.68054481  0.03546618     0.26700
H2490       H  0.55083362  0.69728014  0.00457444     0.26700
N2491       N  0.55828817  0.68510599  0.48467944    -0.36100
N2492       N  0.59608641  0.64464560  0.51533734    -0.56600
N2493       N  0.55818367  0.68373043  0.54670921    -0.36100
N2494       N  0.51681825  0.72085770  0.51615168    -0.56600
C2495       C  0.57416181  0.66072697  0.47285520     0.27500
C2496       C  0.53339201  0.70131935  0.47328367     0.27500
C2497       C  0.57489934  0.65928456  0.55817380     0.27500
C2498       C  0.53348721  0.69921069  0.55857670     0.27500
C2499       C  0.61368564  0.63315849  0.49879398     0.36100
C2500       C  0.61415565  0.63290462  0.53167876     0.36100
C2501       C  0.50670650  0.73995445  0.49982700     0.36100
C2502       C  0.50630021  0.73894142  0.53270550     0.36100
C2503       C  0.55934176  0.66172430  0.45359898    -0.21400
C2504       C  0.53363614  0.68728180  0.45387178    -0.21400
C2505       C  0.56078606  0.65944234  0.57765513    -0.21300
C2506       C  0.53472710  0.68456066  0.57790391    -0.21300
C2507       C  0.64273182  0.61330943  0.50464282    -0.22400
C2508       C  0.64304953  0.61318201  0.52551882    -0.22400
C2509       C  0.98898567  0.76998727  0.50601478    -0.22400
C2510       C  0.98874655  0.76934742  0.52689489    -0.22400
C2511       C  0.60293817  0.63897707  0.47853864    -0.17800
C2512       C  0.51213832  0.73001140  0.47944315    -0.17800
C2513       C  0.51160178  0.72784357  0.55294666    -0.17800
C2514       C  0.60402283  0.63841103  0.55204553    -0.17800
H2515       H  0.56653680  0.64597021  0.44059047     0.15200
H2516       H  0.51730316  0.69493945  0.44111139     0.15200
H2517       H  0.56868897  0.64348664  0.59052090     0.15200
H2518       H  0.51890689  0.69154268  0.59098500     0.15200
H2519       H  0.66153517  0.60007448  0.49490321     0.13400
H2520       H  0.66211393  0.59979219  0.53505994     0.13400
H2521       H  0.97755816  0.79028239  0.49648426     0.13400
H2522       H  0.97715695  0.78905092  0.53666864     0.13400
H2523       H  0.56551530  0.69197456  0.49925716     0.26700
H2524       H  0.56492862  0.69106932  0.53207889     0.26700
N2525       N  0.82257405  0.94764135  0.98457471    -0.36100
N2526       N  0.85488013  0.90290265  0.01572508    -0.56600
N2527       N  0.81456165  0.94078309  0.04640428    -0.36100
N2528       N  0.77958579  0.98284730  0.01544830    -0.56600
C2529       C  0.83849207  0.92273148  0.97307949     0.27500
C2530       C  0.79772240  0.96352130  0.97285686     0.27500
C2531       C  0.82865629  0.91480352  0.05793063     0.27500
C2532       C  0.78996875  0.95735272  0.05783380     0.27500
C2533       C  0.87439001  0.89238393  0.99969271     0.36100
C2534       C  0.87005375  0.88876581  0.03241876     0.36100
C2535       C  0.76919160  0.00159492  0.99905958     0.36100
C2536       C  0.76688849  0.99969579  0.03193447     0.36100
C2537       C  0.82408041  0.92328855  0.95373942    -0.21400
C2538       C  0.79843091  0.94890862  0.95359819    -0.21400
C2539       C  0.81272705  0.91490203  0.07694854    -0.21300
C2540       C  0.78840408  0.94164324  0.07687985    -0.21300
C2541       C  0.90181898  0.87087763  0.00616832    -0.22400
C2542       C  0.89905507  0.86857728  0.02695433    -0.22400
C2543       C  0.74903592  0.53005819  0.00513871    -0.22400
C2544       C  0.74769737  0.52885265  0.02600789    -0.22400
C2545       C  0.86629554  0.90003419  0.97924899    -0.17800
C2546       C  0.77514478  0.99157480  0.97872297    -0.17800
C2547       C  0.77050127  0.98765174  0.05213890    -0.17800
C2548       C  0.85722945  0.89269302  0.05241037    -0.17800
H2549       H  0.83110617  0.90674215  0.94103216     0.15200
H2550       H  0.78212070  0.95586391  0.94070560     0.15200
H2551       H  0.81839789  0.89799127  0.08979349     0.15200
H2552       H  0.77191470  0.94898934  0.08961626     0.15200
H2553       H  0.92143501  0.85783651  0.99687541     0.13400
H2554       H  0.91613987  0.85345318  0.03687078     0.13400
H2555       H  0.73627708  0.54946579  0.99555270     0.13400
H2556       H  0.73366221  0.54707870  0.03568838     0.13400
H2557       H  0.82946160  0.95447882  0.99925107     0.26700
H2558       H  0.82299996  0.94835262  0.03210945     0.26700
C2559       C  0.93935731  0.81458560  0.85531982     0.03700
C2560       C  0.91830594  0.78996773  0.84489999    -0.12500
C2561       C  0.91851467  0.78883643  0.82357241     0.01200
C2562       C  0.94065158  0.81175076  0.81266801    -0.11000
C2563       C  0.96287427  0.83537797  0.82279599     0.03700
C2564       C  0.96238226  0.83639495  0.84408200    -0.10400
H2565       H  0.89999945  0.77331989  0.85314146     0.09300
H2566       H  0.94027995  0.81139194  0.79621428     0.06800
H2567       H  0.97846877  0.85571067  0.85182876     0.06600
C2568       C  0.94792126  0.58116585  0.85369100     0.03700
C2569       C  0.96800072  0.55555549  0.84335827    -0.12500
C2570       C  0.96221026  0.54923185  0.82261593     0.01200
C2571       C  0.93653551  0.56877688  0.81226112    -0.11000
C2572       C  0.91663451  0.59441355  0.82221042     0.03700
C2573       C  0.92256453  0.60071240  0.84285496    -0.10400
H2574       H  0.98783945  0.54036046  0.85132207     0.09300
H2575       H  0.93233395  0.56438037  0.79624487     0.06800
H2576       H  0.90685115  0.62038234  0.85058227     0.06600
C2577       C  0.68522173  0.57141481  0.85645518     0.03700
C2578       C  0.70556324  0.59508175  0.84464095    -0.12500
C2579       C  0.70392202  0.59470590  0.82335823     0.01200
C2580       C  0.68055105  0.57154771  0.81378932    -0.11000
C2581       C  0.65869871  0.54906901  0.82517872     0.03700
C2582       C  0.66091359  0.54923464  0.84651819    -0.10400
H2583       H  0.72440411  0.61245015  0.85173761     0.09300
H2584       H  0.67951537  0.57078883  0.79735139     0.06800
H2585       H  0.64532869  0.53060921  0.85525995     0.06600
C2586       C  0.67128911  0.80176752  0.85410347     0.03700
C2587       C  0.69626258  0.78207223  0.84322516    -0.12500
C2588       C  0.70281177  0.78889247  0.82259582     0.01200
C2589       C  0.68389502  0.81577881  0.81268225    -0.11000
C2590       C  0.65800094  0.83506308  0.82319987     0.03700
C2591       C  0.65197325  0.82788398  0.84386380    -0.10400
H2592       H  0.71129665  0.76185448  0.85086400     0.09300
H2593       H  0.68885483  0.82123749  0.79676081     0.06800
H2594       H  0.63264998  0.84317811  0.85215246     0.06600
C2595       C  0.67161848  0.58190069  0.68186644     0.03700
C2596       C  0.69642628  0.60334679  0.69173226    -0.12500
C2597       C  0.70245098  0.59963585  0.71264182     0.01200
C2598       C  0.68329488  0.57453014  0.72378282    -0.11000
C2599       C  0.65788559  0.55348397  0.71430664     0.03700
C2600       C  0.65204839  0.55736713  0.69339631    -0.10400
H2601       H  0.71172100  0.62225809  0.68303726     0.09300
H2602       H  0.68800494  0.57164713  0.73992462     0.06800
H2603       H  0.63254928  0.54081462  0.68621593     0.06600
C2604       C  0.93617289  0.56904891  0.68010250     0.03700
C2605       C  0.91497229  0.59295209  0.69084439    -0.12500
C2606       C  0.91539982  0.59367900  0.71214335     0.01200
C2607       C  0.93761902  0.57041722  0.72279304    -0.11000
C2608       C  0.96040526  0.54768732  0.71227278     0.03700
C2609       C  0.95971479  0.54731262  0.69096693    -0.10400
H2610       H  0.89667718  0.60973746  0.68265691     0.09300
H2611       H  0.93748566  0.57030237  0.73925278     0.06800
H2612       H  0.97603765  0.52846351  0.68306664     0.06600
C2613       C  0.89291401  0.76674627  0.81251374     0.43000
N2614       N  0.85072061  0.75414548  0.79203656     0.01900
C2615       C  0.74477703  0.60567096  0.79167902    -0.06000
H2616       H  0.87754154  0.58081489  0.78243508     0.07400
C2617       C  0.87479169  0.64972558  0.71611918    -0.06300
Co2618     Co  0.81049920  0.69016292  0.80507980     0.74200
N2619       N  0.84764153  0.62762861  0.78870827    -0.25500
Co2620     Co  0.80979428  0.62979333  0.76597170     0.74100
C2621       C  0.89070006  0.61680827  0.72321293     0.43100
N2622       N  0.85093261  0.73570377  0.73180932     0.01500
N2623       N  0.84904189  0.63163377  0.74361691     0.01600
N2624       N  0.74713045  0.64420304  0.81770437    -0.46400
H2625       H  0.88025787  0.71891075  0.83294912     0.07400
N2626       N  0.84811053  0.65041711  0.80373921     0.01900
N2627       N  0.77180576  0.63324422  0.74331207     0.01600
C2628       C  0.72983833  0.62051963  0.72288172     0.43200
N2629       N  0.85091365  0.75840372  0.74690219    -0.25000
C2630       C  0.74652673  0.73551349  0.81863209    -0.05900
N2631       N  0.87604308  0.77740949  0.79551169    -0.46100
N2632       N  0.74657623  0.60994794  0.73990398    -0.46300
C2633       C  0.73007592  0.76827353  0.81180847     0.43000
N2634       N  0.77125444  0.65152345  0.80364317     0.01900
N2635       N  0.77392827  0.75924566  0.74684741    -0.25000
N2636       N  0.84971729  0.72883051  0.80582354    -0.25500
N2637       N  0.77384677  0.73681779  0.73161575     0.01500
H2638       H  0.74251465  0.80489827  0.75370792     0.07400
H2639       H  0.74220373  0.66846340  0.70242392     0.07400
N2640       N  0.77081736  0.62899685  0.78846780    -0.25500
N2641       N  0.84943767  0.65689385  0.72977175    -0.25100
N2642       N  0.77313930  0.75560538  0.79190159     0.01900
C2643       C  0.88914407  0.61377311  0.81097353     0.43300
C2644       C  0.87718183  0.78150211  0.74399102    -0.06400
N2645       N  0.77279982  0.65847948  0.72948439    -0.25100
H2646       H  0.88045901  0.66496516  0.70258121     0.07400
N2647       N  0.87237931  0.64291333  0.81757763    -0.46400
H2648       H  0.88269958  0.80384654  0.75356711     0.07400
C2649       C  0.73153688  0.77248312  0.72495868     0.43100
C2650       C  0.87532299  0.73462166  0.81951014    -0.05900
Co2651     Co  0.81220112  0.75755063  0.76945579     0.73800
N2652       N  0.87597061  0.74240925  0.71818627    -0.46100
C2653       C  0.72901946  0.61584376  0.81104663     0.43400
N2654       N  0.74805862  0.77930239  0.79520424    -0.46100
Co2655     Co  0.81180690  0.69706197  0.73020489     0.73900
C2656       C  0.74722877  0.65267434  0.71581926    -0.06400
C2657       C  0.87275070  0.60351609  0.79187154    -0.06000
N2658       N  0.77281756  0.72989051  0.80543162    -0.25500
N2659       N  0.87316939  0.60708056  0.74020604    -0.46300
H2660       H  0.73930186  0.58299684  0.78234546     0.07400
C2661       C  0.74792955  0.78258131  0.74407338    -0.06400
Cl2662     Cl  0.81111088  0.69363645  0.76767505    -0.49400
C2663       C  0.89381173  0.77085325  0.72496360     0.43100
H2664       H  0.74036983  0.71901526  0.83159152     0.07400
N2665       N  0.74920271  0.74414457  0.71791845    -0.46100
C2666       C  0.95555813  0.80087299  0.68261222     0.03700
C2667       C  0.97538760  0.82652672  0.69290271    -0.12500
C2668       C  0.96885784  0.83400547  0.71337266     0.01200
C2669       C  0.94229382  0.81544593  0.72372920    -0.11000
C2670       C  0.92237354  0.78944837  0.71386340     0.03700
C2671       C  0.92922040  0.78222174  0.69330072    -0.10400
H2672       H  0.99517638  0.84168335  0.68488608     0.09300
H2673       H  0.93733141  0.82124263  0.73955390     0.06800
H2674       H  0.91370595  0.76246309  0.68554784     0.06600
C2675       C  0.68398823  0.81831151  0.68161474     0.03700
C2676       C  0.66099005  0.84021268  0.69260839    -0.12500
C2677       C  0.66068161  0.83942067  0.71387721     0.01200
C2678       C  0.68272713  0.81586896  0.72419554    -0.11000
C2679       C  0.70535328  0.79337361  0.71355180     0.03700
C2680       C  0.70555581  0.79421287  0.69223489    -0.10400
H2681       H  0.64485674  0.85939320  0.68466127     0.09300
H2682       H  0.68278289  0.81555827  0.74064527     0.06800
H2683       H  0.72439682  0.77805023  0.68415224     0.06600
C2684       C  0.63745660  0.86300583  0.81287559     0.43000
N2685       N  0.62398358  0.90555026  0.79280063     0.01900
C2686       C  0.97150931  0.50546129  0.79243388    -0.06000
H2687       H  0.95088117  0.87207861  0.78230556     0.07400
C2688       C  0.52094303  0.87997979  0.71683519    -0.06300
Co2689     Co  0.55825868  0.94272746  0.80604339     0.74200
N2690       N  0.49667493  0.90369704  0.78901205    -0.25500
Co2691     Co  0.99714695  0.94254841  0.76665187     0.74100
C2692       C  0.98874915  0.86217618  0.72371956     0.43100
N2693       N  0.60465960  0.90744487  0.73246908     0.01500
N2694       N  0.50042078  0.90466783  0.74392293     0.01600
N2695       N  0.51094315  0.50473535  0.81830448    -0.46400
H2696       H  0.58838008  0.87314593  0.83291557     0.07400
N2697       N  0.51927814  0.90383698  0.80426479     0.01900
N2698       N  0.99853736  0.98169081  0.74425645     0.01600
C2699       C  0.98334459  0.52275451  0.72344943     0.43200
N2700       N  0.62742455  0.90723569  0.74764146    -0.25000
C2701       C  0.60399334  0.50597774  0.82122582    -0.05900
N2702       N  0.64804325  0.88079295  0.79611484    -0.46100
N2703       N  0.97363856  0.50546184  0.74053915    -0.46300
C2704       C  0.63657592  0.52313639  0.81440969     0.43000
N2705       N  0.51829308  0.98041507  0.80461488     0.01900
N2706       N  0.62620652  0.98378436  0.74809240    -0.25000
N2707       N  0.59832915  0.90514667  0.80642693    -0.25500
N2708       N  0.60315166  0.98391700  0.73305022     0.01500
H2709       H  0.67211633  0.51545842  0.75454976     0.07400
H2710       H  0.53188203  0.51264644  0.70302861     0.07400
N2711       N  0.99540710  0.98011319  0.78949070    -0.25500
N2712       N  0.52602397  0.90580633  0.73029322    -0.25100
N2713       N  0.62278928  0.98252510  0.79331910     0.01900
C2714       C  0.48376570  0.86129218  0.81104670     0.43300
C2715       C  0.65093822  0.88149155  0.74462814    -0.06400
N2716       N  0.52395606  0.98212558  0.73048822    -0.25100
H2717       H  0.53738260  0.87490541  0.70371901     0.07400
N2718       N  0.51209400  0.87924884  0.81803869    -0.46400
H2719       H  0.67353188  0.87585479  0.75415738     0.07400
C2720       C  0.63842857  0.52657209  0.72608355     0.43100
C2721       C  0.60453641  0.87921382  0.81978782    -0.05900
Co2722     Co  0.62576824  0.94479684  0.77047447     0.73800
N2723       N  0.61182107  0.88326913  0.71863235    -0.46100
C2724       C  0.98181166  0.52171329  0.81156481     0.43400
N2725       N  0.64667877  0.50709913  0.79710343    -0.46100
Co2726     Co  0.56454580  0.94490784  0.73115943     0.73900
C2727       C  0.51659965  0.50711659  0.71657760    -0.06400
C2728       C  0.97347076  0.87751353  0.79184409    -0.06000
N2729       N  0.59749049  0.98138118  0.80715493    -0.25500
N2730       N  0.97747809  0.87902936  0.74052850    -0.46300
H2731       H  0.94884400  0.51047599  0.78285613     0.07400
C2732       C  0.64938217  0.51006525  0.74512002    -0.06400
Cl2733     Cl  0.56144356  0.94384434  0.76859000    -0.49400
C2734       C  0.64042651  0.86559669  0.72546920     0.41100
H2735       H  0.58856588  0.51040418  0.83482062     0.07400
N2736       N  0.60980875  0.50884387  0.71936595    -0.46100
C2737       C  0.74359611  0.54375995  0.93839585     0.30300
C2738       C  0.74620306  0.56898450  0.92285356    -0.36000
C2739       C  0.72092522  0.56673157  0.90734425     0.16300
C2740       C  0.69471842  0.54152647  0.90707360     0.22100
C2741       C  0.69130645  0.51700282  0.92302747    -0.34100
C2742       C  0.71675552  0.51909605  0.93851906     0.16200
O2743       O  0.76702591  0.53829554  0.95291562    -0.26200
C2744       C  0.75489783  0.00995484  0.96261273     0.06000
C2745       C  0.72363883  0.99704553  0.95440803    -0.31000
O2746       O  0.67728656  0.54116525  0.88967562    -0.22900
C2747       C  0.69239096  0.56662818  0.87860979    -0.02900
C2748       C  0.71939255  0.58368102  0.88916041    -0.17300
H2749       H  0.76783675  0.58762418  0.92219195     0.20700
H2750       H  0.67190829  0.99628224  0.92263460     0.19100
H2751       H  0.70938946  0.97346361  0.95874038     0.19000
H2752       H  0.73758505  0.60366119  0.88385382     0.14900
C2753       C  0.89568867  0.84554916  0.93992589     0.30300
C2754       C  0.89218843  0.81831727  0.92573888    -0.36000
C2755       C  0.91262351  0.82157572  0.90800069     0.16300
C2756       C  0.93533031  0.84940426  0.90464327     0.22100
C2757       C  0.93942582  0.87620618  0.91900055    -0.34100
C2758       C  0.91861970  0.87327661  0.93656164     0.16200
O2759       O  0.87566787  0.85027159  0.95611073    -0.26200
C2760       C  0.88604676  0.88129619  0.96320590     0.06000
C2761       C  0.91273956  0.89679345  0.95171492    -0.31000
O2762       O  0.94885269  0.84936566  0.88620315    -0.22900
C2763       C  0.93472279  0.82118833  0.87741796    -0.02900
C2764       C  0.91209619  0.80269029  0.89045413    -0.17300
H2765       H  0.87317238  0.79729407  0.92778905     0.20700
H2766       H  0.95597062  0.89893193  0.91608100     0.19100
H2767       H  0.92408664  0.92275748  0.95341191     0.19000
H2768       H  0.89580472  0.78000359  0.88725854     0.14900
C2769       C  0.63294270  0.59285273  0.59484744     0.30300
C2770       C  0.62790347  0.57008322  0.61138545    -0.36000
C2771       C  0.64673009  0.57829320  0.62901837     0.16300
C2772       C  0.66925166  0.60672278  0.63031028     0.22100
C2773       C  0.67498912  0.62906982  0.61360888    -0.34100
C2774       C  0.65594871  0.62102362  0.59597718     0.16200
O2775       O  0.61378012  0.59337734  0.57816878    -0.26200
C2776       C  0.62499408  0.62192547  0.56836084     0.06000
C2777       C  0.65132031  0.64004417  0.57864325    -0.31000
O2778       O  0.68146126  0.61129934  0.64884297    -0.22900
C2779       C  0.66651198  0.58549041  0.65962727    -0.02900
C2780       C  0.64485522  0.56396735  0.64790407    -0.17300
H2781       H  0.60885284  0.54883317  0.61097019     0.20700
H2782       H  0.69144857  0.65229382  0.61466566     0.19100
H2783       H  0.66232660  0.66559292  0.57496072     0.19000
H2784       H  0.62888278  0.54171235  0.65251568     0.14900
C2785       C  0.95470796  0.77452538  0.63129092     0.30300
C2786       C  0.94308495  0.75573732  0.61422698    -0.36000
C2787       C  0.96494764  0.75764092  0.59696164     0.16300
C2788       C  0.99600869  0.77678861  0.59658303     0.22100
C2789       C  0.00716530  0.79605085  0.61344900    -0.34100
C2790       C  0.98548644  0.79395287  0.63065249     0.16200
O2791       O  0.94000292  0.77440706  0.64950465    -0.26200
C2792       C  0.96164699  0.79412565  0.66067396     0.06000
C2793       C  0.99042284  0.80689327  0.64957960    -0.31000
O2794       O  0.51492977  0.77104652  0.58014202    -0.22900
C2795       C  0.49566538  0.74831654  0.56963308    -0.02900
C2796       C  0.96414394  0.73913618  0.57927309    -0.17300
H2797       H  0.91964248  0.73939257  0.61470568     0.20700
H2798       H  0.53208030  0.81010046  0.61353231     0.19100
H2799       H  0.01265275  0.82241421  0.65466153     0.19000
H2800       H  0.94548805  0.71894155  0.57492478     0.14900
C2801       C  0.65048896  0.76340237  0.94089064     0.30300
C2802       C  0.67328014  0.75541545  0.92474665    -0.36000
C2803       C  0.66816230  0.77481263  0.90684518     0.16300
C2804       C  0.64278505  0.80066256  0.90502463     0.22100
C2805       C  0.62054741  0.80928172  0.92131709    -0.34100
C2806       C  0.62534019  0.78961128  0.93916686     0.16200
O2807       O  0.64668555  0.74459819  0.95760919    -0.26200
C2808       C  0.61899674  0.75909076  0.96679595     0.06000
C2809       C  0.60482545  0.78741614  0.95612703    -0.31000
O2810       O  0.64080606  0.81355943  0.88645918    -0.22900
C2811       C  0.66522958  0.79578169  0.87613331    -0.02900
C2812       C  0.68314813  0.77130368  0.88819303    -0.17300
H2813       H  0.69208752  0.73399626  0.92563850     0.20700
H2814       H  0.59958146  0.82849898  0.91978663     0.19100
H2815       H  0.58051547  0.80144317  0.95925307     0.19000
H2816       H  0.70356255  0.75280212  0.88397669     0.14900
C2817       C  0.94793852  0.61326061  0.90371608     0.30300
C2818       C  0.94075646  0.63765667  0.91907669    -0.36000
C2819       C  0.95689629  0.63113913  0.93786834     0.16300
C2820       C  0.97869266  0.60257314  0.94129998     0.22100
C2821       C  0.98516316  0.57772404  0.92604581    -0.34100
C2822       C  0.96918763  0.58439986  0.90721204     0.16200
O2823       O  0.93770934  0.61568397  0.88466017    -0.26200
C2824       C  0.95258525  0.58804378  0.87568398     0.06000
C2825       C  0.97244034  0.56754879  0.88910039    -0.31000
O2826       O  0.49562684  0.60469870  0.95873780    -0.22900
C2827       C  0.98428788  0.63478145  0.96666859    -0.02900
C2828       C  0.95975436  0.65208835  0.95447009    -0.17300
H2829       H  0.92524996  0.66110685  0.91624663     0.20700
H2830       H  0.50317154  0.55592908  0.92831774     0.19100
H2831       H  0.98756590  0.54400718  0.88606022     0.19000
H2832       H  0.94926154  0.67835917  0.95638557     0.14900
C2833       C  0.90210437  0.56236713  0.63067711     0.30300
C2834       C  0.87509668  0.56418922  0.61612113    -0.36000
C2835       C  0.87935656  0.54265339  0.59907552     0.16300
C2836       C  0.90857766  0.02117868  0.59635798     0.22100
C2837       C  0.93586619  0.01994127  0.61071895    -0.34100
C2838       C  0.93126249  0.54112402  0.62790607     0.16200
O2839       O  0.90124382  0.57653446  0.64888505    -0.26200
C2840       C  0.93017273  0.56420248  0.65801583     0.06000
C2841       C  0.95009006  0.54234945  0.64545439    -0.31000
O2842       O  0.90536798  0.00036766  0.58053919    -0.22900
C2843       C  0.87393734  0.00876918  0.57293414    -0.02900
C2844       C  0.85646021  0.53489831  0.58381548    -0.17300
H2845       H  0.85138691  0.57958672  0.61853230     0.20700
H2846       H  0.95799969  0.00207435  0.60922249     0.19100
H2847       H  0.97366443  0.52744586  0.64900049     0.19000
H2848       H  0.82991538  0.54483656  0.58155959     0.14900
C2849       C  0.73041647  0.84448167  0.59707609     0.30300
C2850       C  0.72915743  0.81649808  0.61103612    -0.36000
C2851       C  0.70988688  0.82258682  0.62889215     0.16300
C2852       C  0.69257962  0.85384760  0.63259756     0.22100
C2853       C  0.69325926  0.88159364  0.61849555    -0.34100
C2854       C  0.71296662  0.87571899  0.60080424     0.16200
O2855       O  0.75048991  0.84609952  0.58069651    -0.26200
C2856       C  0.74570512  0.87872041  0.57386558     0.06000
C2857       C  0.72260328  0.89832801  0.58572070    -0.31000
O2858       O  0.67960926  0.85539324  0.65112949    -0.22900
C2859       C  0.68879053  0.82482795  0.65957446    -0.02900
C2860       C  0.70741647  0.80317794  0.64628003    -0.17300
H2861       H  0.74402147  0.79251591  0.60872216     0.20700
H2862       H  0.68114752  0.90677623  0.62167456     0.19100
H2863       H  0.71605899  0.92594429  0.58423118     0.19000
H2864       H  0.71937826  0.77782651  0.64925811     0.14900
C2865       C  0.72183703  0.51353313  0.09448272     0.30300
C2866       C  0.69695688  0.50789173  0.10998373    -0.36000
C2867       C  0.70436671  0.52378946  0.12865949     0.16300
C2868       C  0.73392025  0.54426732  0.13185815     0.22100
C2869       C  0.75841348  0.55062690  0.11621289    -0.34100
C2870       C  0.75123765  0.53440127  0.09756972     0.16200
O2871       O  0.72306987  0.49666073  0.07704912    -0.26200
C2872       C  0.75326003  0.00739315  0.06871419     0.06000
C2873       C  0.77170565  0.03107890  0.08074004    -0.31000
O2874       O  0.73712877  0.55398769  0.15097760    -0.22900
C2875       C  0.70933608  0.53940924  0.16025390    -0.02900
C2876       C  0.68790546  0.52053730  0.14693618    -0.17300
H2877       H  0.67460830  0.49043247  0.10802617     0.20700
H2878       H  0.78245449  0.56543303  0.11874737     0.19100
H2879       H  0.79826584  0.04099664  0.07842039     0.19000
H2880       H  0.66411903  0.50567767  0.15012325     0.14900
C2881       C  0.63217178  0.58722681  0.43800164     0.30300
C2882       C  0.62919037  0.56091211  0.42326083    -0.36000
C2883       C  0.65178586  0.56410585  0.40644429     0.16300
C2884       C  0.67577837  0.59120375  0.40431466     0.22100
C2885       C  0.67921513  0.61721945  0.41921298    -0.34100
C2886       C  0.65650437  0.61414474  0.43598704     0.16200
O2887       O  0.61117576  0.59139184  0.45381176    -0.26200
C2888       C  0.62247706  0.62113081  0.46211833     0.06000
C2889       C  0.65058329  0.63646990  0.45171724    -0.31000
O2890       O  0.69165197  0.59104952  0.38649280    -0.22900
C2891       C  0.67776272  0.56346962  0.37695930    -0.02900
C2892       C  0.65295761  0.54553747  0.38885109    -0.17300
H2893       H  0.60939631  0.54039891  0.42432718     0.20700
H2894       H  0.69707634  0.63927493  0.41736323     0.19100
H2895       H  0.66314738  0.66153565  0.45460469     0.19000
H2896       H  0.63647683  0.52337702  0.38487613     0.14900
C2897       C  0.89649108  0.54449970  0.40497483     0.30300
C2898       C  0.87268124  0.54906820  0.42110991    -0.36000
C2899       C  0.88081733  0.53105698  0.43915101     0.16300
C2900       C  0.91051068  0.51017295  0.44124897     0.22100
C2901       C  0.93478896  0.50641562  0.42529261    -0.34100
C2902       C  0.92638875  0.52407590  0.40719066     0.16200
O2903       O  0.89211361  0.55575862  0.38616083    -0.26200
C2904       C  0.91950607  0.54228164  0.37608628     0.06000
C2905       C  0.94186324  0.52256771  0.38858104    -0.31000
O2906       O  0.91003973  0.99155292  0.45812579    -0.22900
C2907       C  0.87991658  0.00086571  0.46704533    -0.02900
C2908       C  0.86074891  0.02555769  0.45600007    -0.17300
H2909       H  0.84835835  0.56377309  0.41931371     0.20700
H2910       H  0.95734052  0.48897926  0.42644282     0.19100
H2911       H  0.96545534  0.50804841  0.38461695     0.19000
H2912       H  0.83418986  0.03490600  0.45894502     0.14900
C2913       C  0.63736410  0.78306839  0.09642875     0.30300
C2914       C  0.63401766  0.80904159  0.11131565    -0.36000
C2915       C  0.65737923  0.80655665  0.12775219     0.16300
C2916       C  0.68244049  0.78038497  0.12947236     0.22100
C2917       C  0.68641657  0.75481638  0.11429167    -0.34100
C2918       C  0.66284457  0.75714592  0.09786928     0.16200
O2919       O  0.61560730  0.77817084  0.08109785    -0.26200
C2920       C  0.62744863  0.74893279  0.07246377     0.06000
C2921       C  0.65678714  0.73464542  0.08218991    -0.31000
O2922       O  0.69787825  0.78015888  0.14744236    -0.22900
C2923       C  0.68255245  0.80654417  0.15744582    -0.02900
C2924       C  0.65753310  0.82422597  0.14562584    -0.17300
H2925       H  0.61316007  0.82852818  0.11076301     0.20700
H2926       H  0.70501529  0.73332289  0.11581615     0.19100
H2927       H  0.67010585  0.71010270  0.07894953     0.19000
H2928       H  0.63956680  0.84501940  0.14992557     0.14900
C2929       C  0.96030035  0.60937495  0.09633497     0.30300
C2930       C  0.93269477  0.60951569  0.11065119    -0.36000
C2931       C  0.93751838  0.58804847  0.12785466     0.16300
C2932       C  0.96725615  0.56760817  0.13066949     0.22100
C2933       C  0.99454232  0.56698761  0.11622159    -0.34100
C2934       C  0.98993376  0.58869467  0.09916087     0.16200
O2935       O  0.96315905  0.63025868  0.08031796    -0.26200
C2936       C  0.99492846  0.62262090  0.07278244     0.06000
C2937       C  0.51275850  0.59702414  0.08388402    -0.31000
O2938       O  0.96824674  0.55278967  0.14879176    -0.22900
C2939       C  0.93882433  0.56383601  0.15791083    -0.02900
C2940       C  0.91843411  0.58557764  0.14537988    -0.17300
H2941       H  0.91000782  0.62667074  0.10905671     0.20700
H2942       H  0.51862499  0.55217757  0.11868164     0.19100
H2943       H  0.53954387  0.58768025  0.08171955     0.19000
H2944       H  0.89433553  0.59958859  0.14894647     0.14900
C2945       C  0.72779232  0.86645925  0.44083451     0.30300
C2946       C  0.70700046  0.87659448  0.42417835    -0.36000
C2947       C  0.71017011  0.85588825  0.40671126     0.16300
C2948       C  0.73205923  0.82698144  0.40567622     0.22100
C2949       C  0.75251310  0.81645790  0.42248435    -0.34100
C2950       C  0.74949393  0.83730205  0.43998710     0.16200
O2951       O  0.73249500  0.88492204  0.45749126    -0.26200
C2952       C  0.75721086  0.86728781  0.46766631     0.06000
C2953       C  0.76866742  0.83725601  0.45755972    -0.31000
O2954       O  0.73245867  0.81277948  0.38739458    -0.22900
C2955       C  0.71047022  0.83280959  0.37647690    -0.02900
C2956       C  0.69587903  0.86008291  0.38789712    -0.17300
H2957       H  0.69084397  0.90009315  0.42446869     0.20700
H2958       H  0.77070737  0.79452882  0.42166844     0.19100
H2959       H  0.79060173  0.82027714  0.46152438     0.19000
H2960       H  0.67806580  0.88076976  0.38312774     0.14900
C2961       C  0.89529001  0.83133440  0.13102545     0.30300
C2962       C  0.87586823  0.82207418  0.11373416    -0.36000
C2963       C  0.88094844  0.84341425  0.09654474     0.16300
C2964       C  0.90346803  0.87203470  0.09644978     0.22100
C2965       C  0.92335583  0.88088386  0.11361442    -0.34100
C2966       C  0.91824853  0.85951744  0.13076600     0.16200
O2967       O  0.89273369  0.81656182  0.14911946    -0.26200
C2968       C  0.91440542  0.83542513  0.16069387     0.06000
C2969       C  0.93108241  0.86252383  0.14992768    -0.31000
O2970       O  0.90030388  0.89134415  0.07991071    -0.22900
C2971       C  0.87585975  0.87467302  0.06913777    -0.02900
C2972       C  0.86306400  0.84447386  0.07862898    -0.17300
H2973       H  0.85686803  0.80076690  0.11396611     0.20700
H2974       H  0.94016578  0.90393648  0.11391578     0.19100
H2975       H  0.94911894  0.88245479  0.15532919     0.19000
H2976       H  0.84095174  0.82825172  0.07407027     0.14900
C2977       C  0.96824148  0.80171253  0.40427038     0.30300
C2978       C  0.49483403  0.80420353  0.41902023    -0.36000
C2979       C  0.49010005  0.78337206  0.43643932     0.16300
C2980       C  0.96107369  0.76176065  0.43920813     0.22100
C2981       C  0.93426626  0.75973660  0.42459672    -0.34100
C2982       C  0.93914810  0.78033901  0.40711911     0.16200
O2983       O  0.96918039  0.81581499  0.38597396    -0.26200
C2984       C  0.94035829  0.80331041  0.37687902     0.06000
C2985       C  0.92050592  0.78129362  0.38948728    -0.31000
O2986       O  0.96390552  0.74162463  0.45546320    -0.22900
C2987       C  0.49492878  0.75073885  0.46328693    -0.02900
C2988       C  0.51244473  0.77653299  0.45213125    -0.17300
H2989       H  0.51846843  0.81977063  0.41659112     0.20700
H2990       H  0.91215934  0.74183051  0.42622636     0.19100
H2991       H  0.89688170  0.76648583  0.38598021     0.19000
H2992       H  0.53891440  0.78662234  0.45442036     0.14900
loop_ 
_geom_bond_atom_site_label_1 
_geom_bond_atom_site_label_2 
_geom_bond_distance 
_geom_bond_site_symmetry_2 
_ccdc_geom_bond_type 
C1            C2   1.410       .  A
C1            C6   1.404       .  A
C1          C740   1.482       .  S
C2            C3   1.405       .  A
C2            H7   1.081       .  S
C3            C4   1.402       .  A
C3          C156   1.476       .  S
C4            C5   1.401       .  A
C4            H8   1.084       .  S
C5            C6   1.399       .  A
C5           C37   1.470       .  S
C6            H9   1.084       .  S
C10          C11   1.405       .  A
C10          C15   1.408       .  A
C10         C724   1.486       .  S
C11          C12   1.401       .  A
C11          H16   1.080       .  S
C12          C13   1.401       .  A
C12          C87   1.476       .  S
C13          C14   1.403       .  A
C13          H17   1.083       .  S
C14          C15   1.406       .  A
C14         C134   1.478       .  S
C15          H18   1.083       .  S
C19          C20   1.407       .  A
C19          C24   1.409       .  A
C19         C711   1.495       .  S
C20          C21   1.410       .  A
C20          H25   1.082       .  S
C21          C22   1.406       .  A
C21         C126   1.485       .  S
C22          C23   1.406       .  A
C22          H26   1.084       .  S
C23          C24   1.408       .  A
C23          C57   1.485       .  S
C24          H27   1.079       .  S
C28          C29   1.407       .  A
C28          C33   1.407       .  A
C28         C695   1.487       .  S
C29          C30   1.403       .  A
C29          H34   1.081       .  S
C30          C31   1.405       .  A
C30         C141   1.478       .  S
C31          C32   1.406       .  A
C31          H35   1.084       .  S
C32          C33   1.405       .  A
C32        C1541   1.480       .  S
C33          H36   1.083       .  S
C37        C1570   1.462       .  S
C37        N1551   1.346       .  A
N38          N55   1.322   1_455  A
N38          N60   1.319       .  A
N38         Co75   2.073       .  S
C39         C825   1.459       .  S
C39          H84   1.082       .  S
C39         N812   1.339   1_545  A
H40          C81   1.081       .  S
C41         C793   1.464       .  S
C41          H70   1.082       .  S
C41          N65   1.343   1_655  A
Co42         N60   2.086       .  S
Co42         N50   2.086       .  S
Co42         N82   2.084       .  S
Co42         N58   2.087       .  S
Co42        Cl86   2.466       .  S
N43         C829   1.336   1_455  A
N43          N50   1.320       .  A
N43         Co44   2.077       .  S
Co44         N47   2.086       .  S
Co44         N64   2.082       .  S
Co44         N51   2.082       .  S
Co44        Cl86   2.434       .  S
C45        C1528   1.480       .  S
C45         C789   1.464   1_545  S
C45          N83   1.350       .  A
N46          N53   1.320       .  A
N46          N76   1.323   1_455  A
N46         Co79   2.082       .  S
N47          N65   1.320       .  A
N47         N831   1.326   1_455  A
N48          C77   1.352       .  A
N48          N58   1.326       .  A
H49          C74   1.082       .  S
N50          N71   1.326   1_455  A
N51          N69   1.320       .  A
N51         N804   1.323       .  A
C52          C80   1.462       .  S
C52         C869   1.474       .  S
C52         N804   1.349       .  A
N53          C68   1.341   1_455  A
N53         Co75   2.087       .  S
C54          C57   1.462       .  S
C54          H88   1.081       .  S
C54          N82   1.340       .  A
N55        C1533   1.346       .  A
N56         C800   1.349       .  A
N56         N799   1.322   1_545  A
C57          N78   1.354       .  A
N58          N64   1.319       .  A
N59          C85   1.336       .  A
N59          N61   1.320       .  A
N59         Co75   2.076       .  S
N60          C74   1.342   1_455  A
N61          N89   1.327       .  A
N61         Co79   2.089       .  S
H62          C85   1.082       .  S
H63          C80   1.081       .  S
N64         C787   1.339       .  A
N65         Co79   2.092       .  S
N66          N78   1.328       .  A
N66          N82   1.320       .  A
N66         Co75   2.101       .  S
C67          C81   1.458       .  S
C67        C1597   1.474       .  S
C67         N819   1.351   1_545  A
C68        C1583   1.460       .  S
C68          H72   1.081       .  S
N69          C80   1.340       .  A
N69         Co79   2.079       .  S
N71         C815   1.351       .  A
C73          C85   1.459       .  S
C73          C94   1.476       .  S
C73          N89   1.351       .  A
C74        C1533   1.462       .  S
Co75        Cl86   2.438       .  S
N76        C1583   1.350       .  A
C77         C787   1.459       .  S
C77         C860   1.477       .  S
Co79        Cl86   2.466       .  S
C81         N791   1.336   1_645  A
N83         N795   1.326   1_645  A
C87        C1564   1.460       .  S
C87        N1572   1.350       .  A
C90          C91   1.412       .  A
C90          C95   1.413       .  A
C90         C679   1.491       .  S
C91          C92   1.406       .  A
C91          H96   1.083       .  S
C92          C93   1.397       .  A
C92         C176   1.477       .  S
C93          C94   1.397       .  A
C93          H97   1.083       .  S
C94          C95   1.403       .  A
C95          H98   1.080       .  S
C99         C100   1.410       .  A
C99         C104   1.410       .  A
C99         C660   1.486       .  S
C100        C101   1.401       .  A
C100       H1601   1.081       .  S
C101        C102   1.397       .  A
C101       C1563   1.474       .  S
C102        C103   1.399       .  A
C102        H106   1.082       .  S
C103        C104   1.406       .  A
C103        C166   1.476       .  S
C104        H107   1.083       .  S
H105       C1596   1.081       .  S
C108        C109   1.406       .  A
C108        C113   1.410       .  A
C108        C647   1.486       .  S
C109        C110   1.401       .  A
C109        H114   1.084       .  S
C110        C111   1.401       .  A
C110        C146   1.472       .  S
C111        C112   1.402       .  A
C111        H115   1.084       .  S
C112        C113   1.405       .  A
C112        C825   1.477       .  S
C113        H116   1.081       .  S
C117        C118   1.407       .  A
C117        C122   1.407       .  A
C117        C631   1.487       .  S
C118        C119   1.407       .  A
C118        H123   1.083       .  S
C119        C120   1.402       .  A
C119        C162   1.480       .  S
C120        C121   1.402       .  A
C120        H124   1.083       .  S
C121        C122   1.401       .  A
C121        C800   1.474       .  S
C122        H125   1.080       .  S
C126        C163   1.460       .  S
C126        N144   1.355       .  A
N127        N144   1.328       .  A
N127        N149   1.321       .  A
N127       Co164   2.108       .  S
C128        C166   1.461       .  S
C128        H173   1.081       .  S
C128        N153   1.336       .  A
H129        C170   1.082       .  S
C130        C134   1.462       .  S
C130        H159   1.081       .  S
C130        N154   1.343       .  A
Co131       N149   2.081       .  S
Co131       N139   2.088       .  S
Co131       N171   2.084       .  S
Co131       N147   2.081       .  S
Co131      Cl175   2.469       .  S
N132        C170   1.339       .  A
N132        N139   1.320       .  A
N132       Co133   2.081       .  S
Co133       N136   2.091       .  S
Co133       N153   2.083       .  S
Co133       N140   2.084       .  S
Co133      Cl175   2.434       .  S
C134        N172   1.350       .  A
N135        N142   1.320       .  A
N135        N165   1.327       .  A
N135       Co168   2.085       .  S
N136        N154   1.320       .  A
N136        N172   1.324       .  A
N137        C166   1.350       .  A
N137        N147   1.326       .  A
H138        C163   1.081       .  S
N139        N160   1.326       .  A
N140        N158   1.319       .  A
N140        N145   1.325       .  A
C141        C169   1.463       .  S
C141        N145   1.350       .  A
N142        C157   1.337       .  A
N142       Co164   2.084       .  S
C143        C146   1.462       .  S
C143        H177   1.082       .  S
C143        N171   1.342       .  A
C146        N167   1.348       .  A
N147        N153   1.320       .  A
N148        C174   1.342       .  A
N148        N150   1.320       .  A
N148       Co164   2.096       .  S
N149        C163   1.340       .  A
N150        N178   1.325       .  A
N150       Co168   2.080       .  S
H151        C174   1.081       .  S
H152        C169   1.082       .  S
N154       Co168   2.084       .  S
N155        N167   1.323       .  A
N155        N171   1.319       .  A
N155       Co164   2.079       .  S
C156        C170   1.458       .  S
C156        N160   1.351       .  A
C157        C176   1.461       .  S
C157        H161   1.082       .  S
N158        C169   1.341       .  A
N158       Co168   2.086       .  S
C162        C174   1.464       .  S
C162        N178   1.350       .  A
Co164      Cl175   2.436       .  S
N165        C176   1.350       .  A
Co168      Cl175   2.469       .  S
N179        C184   1.354       .  A
N179        C183   1.353       .  A
N179        H211   1.033       .  S
N180        C187   1.351       .  A
N180        C188   1.353       .  A
N181        C186   1.353       .  A
N181        C185   1.354       .  A
N181        H212   1.029       .  S
N182        C189   1.350       .  A
N182        C190   1.350       .  A
C183        C191   1.388       .  A
C183        C199   1.418       .  A
C184        C200   1.417       .  A
C184        C192   1.388       .  A
C185        C193   1.388       .  A
C185        C202   1.420       .  A
C186        C201   1.419       .  A
C186        C194   1.387       .  A
C187        C199   1.415       .  A
C187        C195   1.387       .  A
C188        C202   1.417       .  A
C188        C196   1.386       .  A
C189        C197   1.386       .  A
C189        C200   1.411       .  A
C190        C198   1.386       .  A
C190        C201   1.412       .  A
C191        C192   1.373       .  A
C191        H203   1.082       .  S
C192        H204   1.082       .  S
C193        C194   1.372       .  A
C193        H205   1.082       .  S
C194        H206   1.082       .  S
C195        C196   1.376       .  A
C195        H207   1.082       .  S
C196        H208   1.082       .  S
C197        C198   1.374       .  A
C197        H957   1.082       .  S
C198        H958   1.082       .  S
C199        C612   1.478       .  S
C200        C599   1.475       .  S
C201        C663   1.477       .  S
C202        C708   1.483       .  S
H209        C945   1.082       .  S
H210        C946   1.082       .  S
N213        C218   1.356       .  A
N213        C217   1.356       .  A
N213        H245   1.036       .  S
N214        C221   1.349       .  A
N214        C222   1.350       .  A
N215        C220   1.355       .  A
N215        C219   1.355       .  A
N215        H246   1.030   1_556  S
N216        C223   1.350       .  A
N216        C224   1.351   1_455  A
C217        C225   1.388       .  A
C217        C233   1.419       .  A
C218        C234   1.419       .  A
C218        C226   1.387       .  A
C219        C227   1.388       .  A
C219        C236   1.422       .  A
C220        C235   1.424       .  A
C220        C228   1.390       .  A
C221        C233   1.412       .  A
C221        C229   1.386       .  A
C222        C236   1.413   1_554  A
C222        C230   1.387       .  A
C223        C234   1.414       .  A
C223       C1727   1.386   1_455  A
C224        C235   1.416   1_654  A
C224       C1728   1.387       .  A
C225        C226   1.372       .  A
C225        H237   1.082       .  S
C226        H238   1.082       .  S
C227        C228   1.369       .  A
C227        H239   1.082       .  S
C228        H240   1.081       .  S
C229        C230   1.374       .  A
C229        H241   1.082       .  S
C230        H242   1.082   1_554  S
C231        C232   1.375       .  A
C231       C1719   1.386       .  A
C231        H243   1.082       .  S
C232       C1720   1.387       .  A
C232        H244   1.082   1_554  S
C233        C676   1.479       .  S
C234       C2188   1.481   1_455  S
C235       C2079   1.481   1_455  S
C236        C564   1.478       .  S
N247        C252   1.352       .  A
N247        C251   1.353       .  A
N247        H279   1.033       .  S
N248        C255   1.350       .  A
N248        C256   1.350       .  A
N249        C254   1.353       .  A
N249        C253   1.352       .  A
N249        H280   1.033       .  S
N250        C257   1.350       .  A
N250        C258   1.351       .  A
C251        C259   1.388       .  A
C251        C267   1.416       .  A
C252        C268   1.416       .  A
C252        C260   1.388       .  A
C253        C261   1.388       .  A
C253        C270   1.416       .  A
C254        C269   1.416       .  A
C254        C262   1.388       .  A
C255        C267   1.412       .  A
C255        C263   1.386       .  A
C256        C270   1.411       .  A
C256        C264   1.386       .  A
C257        C268   1.412       .  A
C257       C1761   1.387   1_455  A
C258        C269   1.411       .  A
C258       C1762   1.385   1_455  A
C259        C260   1.374       .  A
C259        H271   1.082       .  S
C260        H272   1.082       .  S
C261        C262   1.372       .  A
C261        H273   1.082       .  S
C262        H274   1.082       .  S
C263        C264   1.375       .  A
C263        H275   1.082       .  S
C264        H276   1.082       .  S
C265        C266   1.375       .  A
C265       C1753   1.387       .  A
C265        H277   1.082       .  S
C266       C1754   1.385       .  A
C266        H278   1.082       .  S
C267        C644   1.477       .  S
C268        C743   1.474   1_455  S
C269        C551   1.477   1_455  S
C270        C532   1.474       .  S
N281        C286   1.357       .  A
N281        C285   1.356       .  A
N281        H313   1.036       .  S
N282        C289   1.349   1_554  A
N282        C290   1.350       .  A
N283        C288   1.353       .  A
N283        C287   1.352       .  A
N283        H314   1.033       .  S
N284        C291   1.350   1_554  A
N284        C292   1.351       .  A
C285        C293   1.387       .  A
C285        C301   1.419       .  A
C286        C302   1.421       .  A
C286        C294   1.388       .  A
C287        C295   1.389       .  A
C287        C304   1.417       .  A
C288        C303   1.416       .  A
C288        C296   1.387       .  A
C289        C301   1.411       .  A
C289        C297   1.387   1_556  A
C290        C304   1.411       .  A
C290        C298   1.386       .  A
C291        C302   1.412       .  A
C291       C1047   1.387   1_556  A
C292        C303   1.412       .  A
C292       C1048   1.385       .  A
C293        C294   1.374       .  A
C293        H305   1.082       .  S
C294        H306   1.082       .  S
C295        C296   1.371       .  A
C295        H307   1.081       .  S
C296        H308   1.082       .  S
C297        C298   1.375       .  A
C297        H309   1.082   1_554  S
C298        H310   1.082       .  S
C299        C300   1.376       .  A
C299       C1039   1.387   1_554  A
C299        H311   1.082   1_554  S
C300       C1040   1.385   1_545  A
C300        H312   1.082       .  S
C301        C516   1.479       .  S
C302        C500   1.482       .  S
C303        C628   1.479       .  S
C304        C727   1.475       .  S
C315        C316   1.410       .  A
C315        C320   1.408       .  A
C315        C519   1.488       .  S
C316        C317   1.405       .  A
C316        H321   1.081       .  S
C317        C318   1.402       .  A
C317        C369   1.476       .  S
C318        C319   1.402       .  A
C318        H322   1.084       .  S
C319        C320   1.403       .  A
C319       C1966   1.477       .  S
C320        H323   1.084       .  S
C324        C325   1.412       .  A
C324        C329   1.406       .  A
C324        C580   1.484       .  S
C325        C326   1.406       .  A
C325        H330   1.081       .  S
C326        C327   1.399       .  A
C326        C480   1.477       .  S
C327        C328   1.397       .  A
C327        H331   1.081       .  S
C328        C329   1.400       .  A
C328        C399   1.472       .  S
C329        H332   1.084       .  S
C333        C334   1.412       .  A
C333        C338   1.411       .  A
C333        C503   1.494       .  S
C334        C335   1.403       .  A
C334        H339   1.080       .  S
C335        C336   1.400       .  A
C335        C409   1.480       .  S
C336        C337   1.402       .  A
C336        H340   1.084       .  S
C337        C338   1.408       .  A
C337        C460   1.478       .  S
C338        H341   1.083       .  S
C342        C343   1.403       .  A
C342        C347   1.403       .  A
C342        C567   1.485       .  S
C343        C344   1.403       .  A
C343        H348   1.079       .  S
C344        C345   1.406       .  A
C344        C389   1.478       .  S
C345        C346   1.407       .  A
C345        H349   1.084       .  S
C346        C347   1.405       .  A
C346        C440   1.479       .  S
C347        H350   1.082       .  S
C351        C352   1.405       .  A
C351        C356   1.408       .  A
C351        C535   1.483       .  S
C352        C353   1.403       .  A
C352        H357   1.083       .  S
C353        C354   1.401       .  A
C353        C384   1.472       .  S
C354        C355   1.400       .  A
C354        H358   1.083       .  S
C355        C356   1.402       .  A
C355        C476   1.476       .  S
C356        H359   1.080       .  S
C360        C361   1.405       .  A
C360        C365   1.408       .  A
C360        C596   1.485       .  S
C361        C362   1.403       .  A
C361        H366   1.083       .  S
C362        C363   1.405       .  A
C362        C377   1.477       .  S
C363        C364   1.405       .  A
C363        H367   1.084       .  S
C364        C365   1.404       .  A
C364        C455   1.479       .  S
C365        H368   1.081       .  S
C369        C406   1.462       .  S
C369        N387   1.350       .  A
N370        N387   1.324       .  A
N370        N392   1.320       .  A
N370       Co407   2.086       .  S
C371        C409   1.460       .  S
C371        H416   1.082       .  S
C371        N396   1.340       .  A
H372        C413   1.081       .  S
C373        C377   1.463       .  S
C373        H402   1.082       .  S
C373        N397   1.342       .  A
Co374       N392   2.088       .  S
Co374       N382   2.077       .  S
Co374       N414   2.077       .  S
Co374       N390   2.089       .  S
Co374      Cl418   2.466       .  S
N375        C413   1.335       .  A
N375        N382   1.319       .  A
N375       Co376   2.074       .  S
Co376       N379   2.088       .  S
Co376       N396   2.086       .  S
Co376       N383   2.076       .  S
Co376      Cl418   2.430       .  S
C377        N415   1.349       .  A
N378        N385   1.320       .  A
N378        N408   1.327       .  A
N378       Co411   2.088       .  S
N379        N397   1.321       .  A
N379        N415   1.325       .  A
N380        C409   1.352       .  A
N380        N390   1.327       .  A
H381        C406   1.082       .  S
N382        N403   1.324       .  A
N383        N401   1.319       .  A
N383        N388   1.322       .  A
C384        C412   1.461       .  S
C384        N388   1.348       .  A
N385        C400   1.338       .  A
N385       Co407   2.083       .  S
C386        C389   1.461       .  S
C386        H420   1.081       .  S
C386        N414   1.337       .  A
C389        N410   1.351       .  A
N390        N396   1.320       .  A
N391        C417   1.336       .  A
N391        N393   1.320       .  A
N391       Co407   2.078       .  S
N392        C406   1.343       .  A
N393        N421   1.326       .  A
N393       Co411   2.086       .  S
H394        C417   1.081       .  S
H395        C412   1.081       .  S
N397       Co411   2.088       .  S
N398        N410   1.326       .  A
N398        N414   1.319       .  A
N398       Co407   2.089       .  S
C399        C413   1.458       .  S
C399        N403   1.350       .  A
C400        C419   1.460       .  S
C400        H404   1.081       .  S
N401        C412   1.341       .  A
N401       Co411   2.080       .  S
C405        C417   1.457       .  S
C405        C435   1.473       .  S
C405        N421   1.351       .  A
Co407      Cl418   2.433       .  S
N408        C419   1.352       .  A
Co411      Cl418   2.471       .  S
C419        C426   1.480       .  S
C422        C423   1.407       .  A
C422        C427   1.407       .  A
C422        C548   1.486       .  S
C423        C424   1.401       .  A
C423        H428   1.079       .  S
C424        C425   1.401       .  A
C424        C448   1.478       .  S
C425        C426   1.405       .  A
C425        H429   1.082       .  S
C426        C427   1.407       .  A
C427        H430   1.083       .  S
C431        C432   1.406       .  A
C431        C436   1.410       .  A
C431        C615   1.482       .  S
C432        C433   1.401       .  A
C432        H437   1.084       .  S
C433        C434   1.398       .  A
C433        C490   1.472       .  S
C434        C435   1.399       .  A
C434        H438   1.083       .  S
C435        C436   1.404       .  A
C436        H439   1.082       .  S
C440        C477   1.461       .  S
C440        N458   1.351       .  A
N441        N458   1.326       .  A
N441        N463   1.320       .  A
N441       Co478   2.090       .  S
C442        C480   1.460       .  S
C442        H487   1.081       .  S
C442       N1215   1.335   1_545  A
H443        C484   1.082       .  S
C444       C1944   1.462   1_455  S
C444        H473   1.081       .  S
C444        N468   1.340       .  A
Co445       N463   2.082       .  S
Co445       N453   2.090       .  S
Co445       N485   2.088       .  S
Co445       N461   2.083       .  S
Co445      Cl489   2.469       .  S
N446       C1980   1.338       .  A
N446        N453   1.320   1_655  A
N446      Co1943   2.080       .  S
Co447       N467   2.081       .  S
Co447       N454   2.089       .  S
Co447      N1942   2.080       .  S
Co447      N1946   2.086       .  S
Co447     Cl1985   2.434       .  S
C448       C1940   1.462       .  S
C448        N486   1.350       .  A
N449        N456   1.320       .  A
N449        N479   1.325       .  A
N449       Co482   2.082       .  S
N450        N468   1.319       .  A
N450       N1982   1.324   1_455  A
N450      Co1943   2.086   1_455  S
N451       C1976   1.351   1_455  A
N451       N1209   1.326   1_545  A
H452        C477   1.081       .  S
N453        N474   1.326       .  A
N454       N1968   1.320       .  A
N454       N1207   1.326       .  A
C455       C1979   1.463       .  S
C455        N459   1.350       .  A
N456        C471   1.337       .  A
N456       Co478   2.080       .  S
C457        C460   1.462       .  S
C457        H491   1.081       .  S
C457       N1233   1.344   1_545  A
N459       N1202   1.326   1_545  A
C460        N481   1.350       .  A
N461       N1199   1.326       .  A
N461       N1963   1.321   1_455  A
N462       C1236   1.339       .  A
N462        N464   1.321       .  A
N462       Co478   2.084       .  S
N463        C477   1.339       .  A
N464       N1240   1.324       .  A
N464       Co482   2.084       .  S
H465        C488   1.081       .  S
H466        C483   1.082       .  S
N467       C1190   1.335       .  A
N467       N1957   1.321       .  A
N468       Co482   2.082       .  S
N469        N485   1.320       .  A
N469       N1229   1.324       .  A
N469       Co478   2.088       .  S
C470       C1815   1.477       .  S
C470       C1980   1.458       .  S
C470        N474   1.352   1_655  A
C471        C490   1.458       .  S
C471        H475   1.082       .  S
N472       C1231   1.342       .  A
N472       N1950   1.320   1_455  A
N472       Co482   2.088       .  S
C476        C488   1.460       .  S
C476        N492   1.351       .  A
Co478      Cl489   2.435       .  S
N479        C490   1.350       .  A
C480       N1947   1.351       .  A
N481       N1217   1.324   1_545  A
Co482      Cl489   2.467       .  S
C483       C1951   1.463   1_455  S
C483       N1220   1.342   1_545  A
C484       C1966   1.458       .  S
C484       N1942   1.338       .  A
N485       C1205   1.344       .  A
N486       N1946   1.324       .  A
C488       N1210   1.339   1_545  A
Cl489     Co1943   2.434   1_455  S
N492       N1212   1.324   1_545  A
C493        C498   1.381       .  A
C493        C494   1.402       .  A
C493        O499   1.320       .  A
C494        C495   1.403       .  A
C494        H505   1.082       .  S
C495        C504   1.358       .  A
C495        C496   1.378       .  A
C496        C497   1.406       .  A
C496        O502   1.323       .  A
C497        C498   1.406       .  A
C497       H1254   1.082   1_545  S
C498       C1249   1.363   1_545  A
O499       C1248   1.330       .  A
C500        C501   1.391       .  A
C500       O1247   1.330       .  A
C501       C1246   1.363       .  A
C501        H507   1.082       .  S
O502        C503   1.335       .  A
C503        C504   1.397       .  A
C504        H508   1.081       .  S
H506       C1245   1.082       .  S
C509        C514   1.381       .  A
C509        C510   1.405       .  A
C509        O515   1.319       .  A
C510        C511   1.404       .  A
C510        H521   1.082       .  S
C511        C520   1.364       .  A
C511        C512   1.379       .  A
C512        C513   1.402       .  A
C512        O518   1.317       .  A
C513        C514   1.401       .  A
C513        H522   1.082       .  S
C514        C517   1.361       .  A
O515        C516   1.330       .  A
C516        C517   1.389       .  A
C517        H523   1.082       .  S
O518        C519   1.332       .  A
C519        C520   1.398       .  A
C520        H524   1.081       .  S
C525        C530   1.382       .  A
C525        C526   1.400       .  A
C525        O531   1.317       .  A
C526        C527   1.400       .  A
C526        H537   1.082       .  S
C527        C536   1.357       .  A
C527        C528   1.378       .  A
C528        C529   1.403       .  A
C528        O534   1.318       .  A
C529        C530   1.403       .  A
C529        H538   1.082       .  S
C530        C533   1.360       .  A
O531        C532   1.329       .  A
C532        C533   1.389       .  A
C533        H539   1.082       .  S
O534        C535   1.333       .  A
C535        C536   1.394       .  A
C536        H540   1.081       .  S
C541        C546   1.378       .  A
C541        C542   1.406       .  A
C541        O547   1.321       .  A
C542        C543   1.406       .  A
C542        H553   1.082       .  S
C543        C552   1.364       .  A
C543        C544   1.381       .  A
C544        C545   1.400       .  A
C544       O2046   1.316       .  A
C545        C546   1.399       .  A
C545       H2050   1.082       .  S
C546        C549   1.356       .  A
O547        C548   1.334       .  A
C548        C549   1.395       .  A
C549        H555   1.081       .  S
O550        C551   1.328   1_455  A
O550       C2040   1.316   1_455  A
C551       C2048   1.392       .  A
C552       C2047   1.392       .  A
C552        H556   1.082       .  S
H554       C2041   1.082       .  S
C557        C562   1.382       .  A
C557        C558   1.402       .  A
C557        O563   1.317       .  A
C558        C559   1.401       .  A
C558        H569   1.082       .  S
C559        C568   1.359       .  A
C559        C560   1.378       .  A
C560        C561   1.402       .  A
C560        O566   1.317       .  A
C561        C562   1.402       .  A
C561        H570   1.082       .  S
C562        C565   1.361       .  A
O563        C564   1.329       .  A
C564        C565   1.391       .  A
C565        H571   1.082       .  S
O566        C567   1.332       .  A
C567        C568   1.396       .  A
C568        H572   1.081       .  S
C573        C578   1.378       .  A
C573        C574   1.402       .  A
C573        O579   1.317       .  A
C574        C575   1.402       .  A
C574        H585   1.082       .  S
C575        C584   1.360       .  A
C575        C576   1.381       .  A
C576        C577   1.404       .  A
C576       O2078   1.319       .  A
C577        C578   1.403       .  A
C577       H2082   1.082       .  S
C578        C581   1.362       .  A
O579        C580   1.332       .  A
C580        C581   1.395       .  A
C581        H587   1.081       .  S
O582       C2072   1.319       .  A
O582       C2079   1.330       .  A
C583        C584   1.391       .  A
C583       C1731   1.481       .  S
C583       O2078   1.330       .  A
C584        H588   1.083       .  S
H586       C2073   1.082   1_455  S
C589        C594   1.379       .  A
C589        C590   1.403       .  A
C589        O595   1.318       .  A
C590        C591   1.402       .  A
C590        H601   1.082       .  S
C591        C600   1.361       .  A
C591       C1340   1.381       .  A
C592        C593   1.401       .  A
C592       C1339   1.381       .  A
C592        O598   1.317       .  A
C593       C1342   1.401       .  A
C593        H602   1.082       .  S
C594        C597   1.360       .  A
C594       C1341   1.401       .  A
O595        C596   1.333       .  A
C596        C597   1.395       .  A
C597        H603   1.081       .  S
O598        C599   1.328       .  A
C599       C1348   1.389       .  A
C600       C1347   1.389       .  A
C600        H604   1.082       .  S
C605        C610   1.381       .  A
C605        C606   1.403       .  A
C605        O611   1.319       .  A
C606        C607   1.402       .  A
C606        H617   1.082       .  S
C607        C616   1.362       .  A
C607        C608   1.379       .  A
C608        C609   1.402       .  A
C608        O614   1.316       .  A
C609        C610   1.401       .  A
C609        H618   1.082       .  S
C610        C613   1.359       .  A
O611        C612   1.329       .  A
C612        C613   1.390       .  A
C613        H619   1.083       .  S
O614        C615   1.332       .  A
C615        C616   1.395       .  A
C616        H620   1.082       .  S
C621        C626   1.381       .  A
C621        C622   1.402       .  A
C621        O627   1.319   1_545  A
C622        C623   1.402       .  A
C622        H633   1.082   1_545  S
C623        C632   1.359       .  A
C623        C624   1.378       .  A
C624        C625   1.404       .  A
C624        O630   1.320       .  A
C625        C626   1.404       .  A
C625        H634   1.082       .  S
C626       C1377   1.361       .  A
O627       C1376   1.330   1_565  A
C628        C629   1.391       .  A
C628       O1375   1.330       .  A
C629       C1374   1.361       .  A
C629        H635   1.082       .  S
O630        C631   1.333       .  A
C631        C632   1.396       .  A
C632        H636   1.081       .  S
C637        C642   1.381       .  A
C637        C638   1.402       .  A
C637        O643   1.318       .  A
C638        C639   1.402       .  A
C638        H649   1.082       .  S
C639        C648   1.361       .  A
C639        C640   1.378       .  A
C640        C641   1.403       .  A
C640        O646   1.317       .  A
C641        C642   1.402       .  A
C641        H650   1.082       .  S
C642        C645   1.361       .  A
O643        C644   1.329       .  A
C644        C645   1.389       .  A
C645        H651   1.082       .  S
O646        C647   1.333       .  A
C647        C648   1.396       .  A
C648        H652   1.081       .  S
C653        C658   1.379       .  A
C653        C654   1.403       .  A
C653        O659   1.319       .  A
C654        C655   1.403       .  A
C654        H665   1.082       .  S
C655        C656   1.382       .  A
C655       C1412   1.359       .  A
C656        C657   1.402       .  A
C656       O1410   1.319   1_545  A
C657        C658   1.402       .  A
C657        H666   1.082   1_545  S
C658        C661   1.358       .  A
O659        C660   1.333       .  A
C660        C661   1.396       .  A
C661        H667   1.081       .  S
O662        C663   1.329       .  A
O662       C1404   1.319       .  A
C663        C664   1.389       .  A
C664       C1403   1.360       .  A
C664        H668   1.082       .  S
C669        C674   1.381       .  A
C669        C670   1.401       .  A
C669        O675   1.317       .  A
C670        C671   1.401       .  A
C670        H681   1.082       .  S
C671        C680   1.358       .  A
C671        C672   1.378       .  A
C672        C673   1.406       .  A
C672        O678   1.321       .  A
C673        C674   1.405       .  A
C673        H682   1.082       .  S
C674        C677   1.364       .  A
O675        C676   1.328       .  A
C676        C677   1.391       .  A
C677        H683   1.082       .  S
O678        C679   1.335       .  A
C679        C680   1.396       .  A
C680        H684   1.081       .  S
C685        C690   1.381       .  A
C685        C686   1.405       .  A
C685        O691   1.321       .  A
C686        C687   1.405       .  A
C686        H697   1.082       .  S
C687        C696   1.362       .  A
C687        C688   1.379       .  A
C688        C689   1.402       .  A
C688        O694   1.318       .  A
C689        C690   1.402       .  A
C689       H2194   1.082       .  S
C690       C2189   1.360       .  A
O691        C692   1.331       .  A
C692       C2189   1.389       .  A
C692       C1730   1.481       .  S
C693       C2186   1.360   1_455  A
C693       C2188   1.389   1_455  A
C693        H699   1.082       .  S
O694        C695   1.332       .  A
C695        C696   1.398       .  A
C696        H700   1.081       .  S
H698       C2185   1.082   1_455  S
C701        C706   1.380       .  A
C701        C702   1.403       .  A
C701        O707   1.318       .  A
C702        C703   1.402       .  A
C702        H713   1.082       .  S
C703        C712   1.361       .  A
C703        C704   1.378       .  A
C704        C705   1.408       .  A
C704        O710   1.322       .  A
C705        C706   1.407       .  A
C705        H714   1.082       .  S
C706        C709   1.367       .  A
O707        C708   1.330       .  A
C708        C709   1.393       .  A
C709        H715   1.082       .  S
O710        C711   1.336       .  A
C711        C712   1.397       .  A
C712        H716   1.081       .  S
C717        C722   1.378       .  A
C717        C718   1.403       .  A
C717        O723   1.318       .  A
C718        C719   1.402       .  A
C718        H729   1.082       .  S
C719        C728   1.361       .  A
C719        C720   1.381       .  A
C720        C721   1.402       .  A
C720        O726   1.316       .  A
C721        C722   1.401       .  A
C721        H730   1.082       .  S
C722        C725   1.359       .  A
O723        C724   1.332       .  A
C724        C725   1.397       .  A
C725        H731   1.081       .  S
O726        C727   1.329       .  A
C727        C728   1.390       .  A
C728        H732   1.082       .  S
C733        C738   1.379       .  A
C733       C2230   1.403       .  A
C733        O739   1.316       .  A
C734        C735   1.401       .  A
C734       C2229   1.403       .  A
C734        H745   1.082   1_655  S
C735        C744   1.360   1_655  A
C735       C2232   1.381       .  A
C736        C737   1.402       .  A
C736       C2231   1.381       .  A
C736        O742   1.317       .  A
C737        C738   1.401       .  A
C737        H746   1.082       .  S
C738        C741   1.360       .  A
O739        C740   1.333       .  A
C740        C741   1.394       .  A
C741        H747   1.081       .  S
O742       C2239   1.329       .  A
C743        C744   1.389   1_655  A
C743       O2238   1.329       .  A
C744        H748   1.082       .  S
C749        C750   1.410       .  A
C749        C754   1.404       .  A
C749       C1488   1.482       .  S
C750        C751   1.405       .  A
C750        H755   1.081       .  S
C751        C752   1.402       .  A
C751        C904   1.476       .  S
C752        C753   1.401       .  A
C752        H756   1.084       .  S
C753        C754   1.399       .  A
C753        C785   1.470       .  S
C754        H757   1.084       .  S
C758        C759   1.405       .  A
C758        C763   1.408       .  A
C758       C1472   1.485       .  S
C759        C760   1.401       .  A
C759        H764   1.080       .  S
C760        C761   1.402       .  A
C760        C835   1.476       .  S
C761        C762   1.403       .  A
C761        H765   1.083       .  S
C762        C763   1.406       .  A
C762        C882   1.479       .  S
C763        H766   1.083       .  S
C767        C768   1.407       .  A
C767        C772   1.409       .  A
C767       C1459   1.495       .  S
C768        C769   1.410       .  A
C768        H773   1.082       .  S
C769        C770   1.406       .  A
C769        C874   1.485       .  S
C770        C771   1.406       .  A
C770        H774   1.084       .  S
C771        C772   1.408       .  A
C771        C805   1.486       .  S
C772        H775   1.079       .  S
C776        C777   1.407       .  A
C776        C781   1.407       .  A
C776       C1443   1.487       .  S
C777        C778   1.404       .  A
C777        H782   1.081       .  S
C778        C779   1.406       .  A
C778        C889   1.478       .  S
C779        C780   1.406       .  A
C779        H783   1.084       .  S
C780        C781   1.405       .  A
C780       C2289   1.480       .  S
C781        H784   1.083       .  S
C785       C2318   1.463       .  S
C785       N2299   1.346       .  A
N786        N803   1.322   1_455  A
N786        N808   1.319       .  A
N786       Co823   2.073       .  S
C787        H832   1.082       .  S
H788        C829   1.081       .  S
C789        H818   1.082       .  S
C789        N813   1.343   1_655  A
Co790       N808   2.086       .  S
Co790       N798   2.085       .  S
Co790       N830   2.084       .  S
Co790       N806   2.087       .  S
Co790      Cl834   2.466       .  S
N791        N798   1.320       .  A
N791       Co792   2.077       .  S
Co792       N795   2.086       .  S
Co792       N812   2.083       .  S
Co792       N799   2.082       .  S
Co792      Cl834   2.434       .  S
C793       C2276   1.480       .  S
C793        N831   1.350       .  A
N794        N801   1.320       .  A
N794        N824   1.323   1_455  A
N794       Co827   2.083       .  S
N795        N813   1.320       .  A
N796        C825   1.352   1_565  A
N796        N806   1.326       .  A
H797        C822   1.082       .  S
N798        N819   1.326   1_455  A
N799        N817   1.320       .  A
C800        C828   1.462   1_545  S
N801        C816   1.341   1_455  A
N801       Co823   2.086       .  S
C802        C805   1.462       .  S
C802        H836   1.081       .  S
C802        N830   1.340       .  A
N803       C2281   1.346       .  A
C805        N826   1.354       .  A
N806        N812   1.320       .  A
N807        C833   1.336       .  A
N807        N809   1.320       .  A
N807       Co823   2.076       .  S
N808        C822   1.342   1_455  A
N809        N837   1.327       .  A
N809       Co827   2.089       .  S
H810        C833   1.082       .  S
H811        C828   1.081       .  S
N813       Co827   2.092       .  S
N814        N826   1.328       .  A
N814        N830   1.320       .  A
N814       Co823   2.101       .  S
C815        C829   1.458       .  S
C815       C2345   1.474       .  S
C816       C2331   1.460       .  S
C816        H820   1.081       .  S
N817        C828   1.340       .  A
N817       Co827   2.080       .  S
C821        C833   1.459       .  S
C821        C842   1.476       .  S
C821        N837   1.351       .  A
C822       C2281   1.463       .  S
Co823      Cl834   2.437       .  S
N824       C2331   1.351       .  A
Co827      Cl834   2.466       .  S
C835       C2312   1.460       .  S
C835       N2320   1.351       .  A
C838        C839   1.411       .  A
C838        C843   1.414       .  A
C838       C1427   1.491       .  S
C839        C840   1.406       .  A
C839        H844   1.083       .  S
C840        C841   1.397       .  A
C840        C924   1.476       .  S
C841        C842   1.397       .  A
C841        H845   1.083       .  S
C842        C843   1.403       .  A
C843        H846   1.080       .  S
C847        C848   1.410       .  A
C847        C852   1.410       .  A
C847       C1408   1.486       .  S
C848        C849   1.401       .  A
C848       H2349   1.081       .  S
C849        C850   1.397       .  A
C849       C2311   1.474       .  S
C850        C851   1.399       .  A
C850        H854   1.082       .  S
C851        C852   1.406       .  A
C851        C914   1.476       .  S
C852        H855   1.083       .  S
H853       C2344   1.081       .  S
C856        C857   1.406       .  A
C856        C861   1.410       .  A
C856       C1395   1.486       .  S
C857        C858   1.401       .  A
C857        H862   1.084       .  S
C858        C859   1.401       .  A
C858        C894   1.472       .  S
C859        C860   1.402       .  A
C859        H863   1.084       .  S
C860        C861   1.405       .  A
C861        H864   1.081       .  S
C865        C866   1.408       .  A
C865        C870   1.407       .  A
C865       C1379   1.487       .  S
C866        C867   1.408       .  A
C866        H871   1.083       .  S
C867        C868   1.402       .  A
C867        C910   1.480       .  S
C868        C869   1.402       .  A
C868        H872   1.083       .  S
C869        C870   1.402       .  A
C870        H873   1.080       .  S
C874        C911   1.460       .  S
C874        N892   1.355       .  A
N875        N892   1.328       .  A
N875        N897   1.321       .  A
N875       Co912   2.108       .  S
C876        C914   1.460       .  S
C876        H921   1.081       .  S
C876        N901   1.336       .  A
H877        C918   1.082       .  S
C878        C882   1.462       .  S
C878        H907   1.081       .  S
C878        N902   1.343       .  A
Co879       N897   2.081       .  S
Co879       N887   2.089       .  S
Co879       N919   2.085       .  S
Co879       N895   2.081       .  S
Co879      Cl923   2.470       .  S
N880        C918   1.339       .  A
N880        N887   1.320       .  A
N880       Co881   2.081       .  S
Co881       N884   2.091       .  S
Co881       N901   2.083       .  S
Co881       N888   2.085       .  S
Co881      Cl923   2.434       .  S
C882        N920   1.351       .  A
N883        N890   1.320       .  A
N883        N913   1.327       .  A
N883       Co916   2.085       .  S
N884        N902   1.320       .  A
N884        N920   1.324       .  A
N885        C914   1.350       .  A
N885        N895   1.326       .  A
H886        C911   1.081       .  S
N887        N908   1.326       .  A
N888        N906   1.319       .  A
N888        N893   1.325       .  A
C889        C917   1.463       .  S
C889        N893   1.350       .  A
N890        C905   1.337       .  A
N890       Co912   2.083       .  S
C891        C894   1.462       .  S
C891        H925   1.082       .  S
C891        N919   1.342       .  A
C894        N915   1.347       .  A
N895        N901   1.320       .  A
N896        C922   1.342       .  A
N896        N898   1.320       .  A
N896       Co912   2.097       .  S
N897        C911   1.340       .  A
N898        N926   1.325       .  A
N898       Co916   2.080       .  S
H899        C922   1.081       .  S
H900        C917   1.082       .  S
N902       Co916   2.084       .  S
N903        N915   1.323       .  A
N903        N919   1.320       .  A
N903       Co912   2.079       .  S
C904        C918   1.458       .  S
C904        N908   1.352       .  A
C905        C924   1.460       .  S
C905        H909   1.082       .  S
N906        C917   1.341       .  A
N906       Co916   2.086       .  S
C910        C922   1.464       .  S
C910        N926   1.350       .  A
Co912      Cl923   2.436       .  S
N913        C924   1.350       .  A
Co916      Cl923   2.469       .  S
N927        C932   1.354       .  A
N927        C931   1.353       .  A
N927        H959   1.033       .  S
N928        C935   1.351       .  A
N928        C936   1.353       .  A
N929        C934   1.353       .  A
N929        C933   1.354       .  A
N929        H960   1.029       .  S
N930        C937   1.349       .  A
N930        C938   1.350       .  A
C931        C939   1.388       .  A
C931        C947   1.418       .  A
C932        C948   1.417       .  A
C932        C940   1.388       .  A
C933        C941   1.388       .  A
C933        C950   1.420       .  A
C934        C949   1.419       .  A
C934        C942   1.387       .  A
C935        C947   1.415       .  A
C935        C943   1.387       .  A
C936        C950   1.417       .  A
C936        C944   1.386       .  A
C937        C945   1.386   1_565  A
C937        C948   1.411       .  A
C938        C946   1.386   1_565  A
C938        C949   1.412       .  A
C939        C940   1.373       .  A
C939        H951   1.082       .  S
C940        H952   1.082       .  S
C941        C942   1.372       .  A
C941        H953   1.082       .  S
C942        H954   1.082       .  S
C943        C944   1.376       .  A
C943        H955   1.082       .  S
C944        H956   1.082       .  S
C945        C946   1.374       .  A
C947       C1360   1.478       .  S
C948       C1347   1.476   1_565  S
C949       C1411   1.476   1_565  S
C950       C1456   1.483       .  S
N961        C966   1.356       .  A
N961        C965   1.356       .  A
N961        H993   1.036       .  S
N962        C969   1.349       .  A
N962        C970   1.350       .  A
N963        C968   1.355       .  A
N963        C967   1.355       .  A
N963        H994   1.030   1_556  S
N964        C971   1.350       .  A
N964        C972   1.351   1_455  A
C965        C973   1.388       .  A
C965        C981   1.419       .  A
C966        C982   1.419       .  A
C966        C974   1.387       .  A
C967        C975   1.388       .  A
C967        C984   1.422       .  A
C968        C983   1.424       .  A
C968        C976   1.390       .  A
C969        C981   1.412       .  A
C969        C977   1.386       .  A
C970        C984   1.413   1_554  A
C970        C978   1.387       .  A
C971       C2475   1.386   1_455  A
C971        C982   1.414       .  A
C972       C2476   1.387       .  A
C972        C983   1.416   1_654  A
C973        C974   1.372       .  A
C973        H985   1.082       .  S
C974        H986   1.082       .  S
C975        C976   1.369       .  A
C975        H987   1.082       .  S
C976        H988   1.081       .  S
C977        C978   1.374       .  A
C977        H989   1.082       .  S
C978        H990   1.082   1_554  S
C979       C2467   1.386       .  A
C979        C980   1.376       .  A
C979        H991   1.082       .  S
C980       C2468   1.387       .  A
C980        H992   1.082   1_554  S
C981       C1424   1.479       .  S
C982       C2936   1.481   1_455  S
C983       C2827   1.482   1_455  S
C984       C1312   1.478       .  S
N995       C1000   1.351       .  A
N995        C999   1.353       .  A
N995       H1027   1.034       .  S
N996       C1003   1.350       .  A
N996       C1004   1.350       .  A
N997       C1002   1.353       .  A
N997       C1001   1.352       .  A
N997       H1028   1.033       .  S
N998       C1005   1.350       .  A
N998       C1006   1.351       .  A
C999       C1007   1.388       .  A
C999       C1015   1.416       .  A
C1000      C1016   1.415       .  A
C1000      C1008   1.388       .  A
C1001      C1009   1.389       .  A
C1001      C1018   1.416       .  A
C1002      C1017   1.415       .  A
C1002      C1010   1.387       .  A
C1003      C1015   1.412       .  A
C1003      C1011   1.386       .  A
C1004      C1018   1.411       .  A
C1004      C1012   1.386       .  A
C1005      C2509   1.387   1_455  A
C1005      C1016   1.411       .  A
C1006      C2510   1.385   1_455  A
C1006      C1017   1.411       .  A
C1007      C1008   1.374       .  A
C1007      H1019   1.082       .  S
C1008      H1020   1.082       .  S
C1009      C1010   1.372       .  A
C1009      H1021   1.082       .  S
C1010      H1022   1.082       .  S
C1011      C1012   1.375       .  A
C1011      H1023   1.082       .  S
C1012      H1024   1.082       .  S
C1013      C2501   1.387       .  A
C1013      C1014   1.375       .  A
C1013      H1025   1.082       .  S
C1014      C2502   1.385       .  A
C1014      H1026   1.082       .  S
C1015      C1392   1.477       .  S
C1016      C1491   1.473   1_455  S
C1017      C1299   1.478   1_455  S
C1018      C1280   1.474       .  S
N1029      C1034   1.357       .  A
N1029      C1033   1.356       .  A
N1029      H1061   1.036       .  S
N1030      C1037   1.349   1_554  A
N1030      C1038   1.350       .  A
N1031      C1036   1.353       .  A
N1031      C1035   1.352       .  A
N1031      H1062   1.033       .  S
N1032      C1039   1.349   1_564  A
N1032      C1040   1.351       .  A
C1033      C1041   1.386       .  A
C1033      C1049   1.418       .  A
C1034      C1050   1.421       .  A
C1034      C1042   1.388       .  A
C1035      C1043   1.389       .  A
C1035      C1052   1.417       .  A
C1036      C1051   1.416       .  A
C1036      C1044   1.387       .  A
C1037      C1049   1.410       .  A
C1037      C1045   1.387   1_556  A
C1038      C1052   1.411       .  A
C1038      C1046   1.386       .  A
C1039      C1050   1.412   1_545  A
C1040      C1051   1.412       .  A
C1041      C1042   1.374       .  A
C1041      H1053   1.082       .  S
C1042      H1054   1.082       .  S
C1043      C1044   1.371       .  A
C1043      H1055   1.081       .  S
C1044      H1056   1.082       .  S
C1045      C1046   1.375       .  A
C1045      H1057   1.082   1_554  S
C1046      H1058   1.082       .  S
C1047      C1048   1.376       .  A
C1047      H1059   1.082   1_554  S
C1048      H1060   1.082       .  S
C1049      C1264   1.479       .  S
C1050      C1248   1.481   1_565  S
C1051      C1376   1.479   1_565  S
C1052      C1475   1.474       .  S
C1063      C1064   1.410       .  A
C1063      C1068   1.408       .  A
C1063      C1267   1.488       .  S
C1064      C1065   1.406       .  A
C1064      H1069   1.081       .  S
C1065      C1066   1.402       .  A
C1065      C1117   1.477       .  S
C1066      C1067   1.402       .  A
C1066      H1070   1.084       .  S
C1067      C1068   1.403       .  A
C1067      C2714   1.477       .  S
C1068      H1071   1.084       .  S
C1072      C1073   1.412       .  A
C1072      C1077   1.406       .  A
C1072      C1328   1.484       .  S
C1073      C1074   1.406       .  A
C1073      H1078   1.081       .  S
C1074      C1075   1.399       .  A
C1074      C1228   1.476       .  S
C1075      C1076   1.397       .  A
C1075      H1079   1.081       .  S
C1076      C1077   1.400       .  A
C1076      C1147   1.472       .  S
C1077      H1080   1.084       .  S
C1081      C1082   1.413       .  A
C1081      C1086   1.411       .  A
C1081      C1251   1.495       .  S
C1082      C1083   1.403       .  A
C1082      H1087   1.080       .  S
C1083      C1084   1.400       .  A
C1083      C1157   1.481       .  S
C1084      C1085   1.402       .  A
C1084      H1088   1.084       .  S
C1085      C1086   1.408       .  A
C1085      C1208   1.478       .  S
C1086      H1089   1.083       .  S
C1090      C1091   1.403       .  A
C1090      C1095   1.403       .  A
C1090      C1315   1.485       .  S
C1091      C1092   1.403       .  A
C1091      H1096   1.079       .  S
C1092      C1093   1.406       .  A
C1092      C1137   1.478       .  S
C1093      C1094   1.407       .  A
C1093      H1097   1.084       .  S
C1094      C1095   1.405       .  A
C1094      C1188   1.479       .  S
C1095      H1098   1.082       .  S
C1099      C1100   1.405       .  A
C1099      C1104   1.408       .  A
C1099      C1283   1.483       .  S
C1100      C1101   1.403       .  A
C1100      H1105   1.083       .  S
C1101      C1102   1.401       .  A
C1101      C1132   1.471       .  S
C1102      C1103   1.400       .  A
C1102      H1106   1.083       .  S
C1103      C1104   1.402       .  A
C1103      C1224   1.476       .  S
C1104      H1107   1.080       .  S
C1108      C1109   1.405       .  A
C1108      C1113   1.408       .  A
C1108      C1344   1.485       .  S
C1109      C1110   1.403       .  A
C1109      H1114   1.083       .  S
C1110      C1111   1.405       .  A
C1110      C1125   1.477       .  S
C1111      C1112   1.405       .  A
C1111      H1115   1.084       .  S
C1112      C1113   1.404       .  A
C1112      C1203   1.479       .  S
C1113      H1116   1.081       .  S
C1117      C1154   1.462       .  S
C1117      N1135   1.350       .  A
N1118      N1135   1.324       .  A
N1118      N1140   1.320       .  A
N1118     Co1155   2.087       .  S
C1119      C1157   1.461       .  S
C1119      H1164   1.082       .  S
C1119      N1144   1.340       .  A
H1120      C1161   1.081       .  S
C1121      C1125   1.463       .  S
C1121      H1150   1.082       .  S
C1121      N1145   1.342       .  A
Co1122     N1140   2.088       .  S
Co1122     N1130   2.077       .  S
Co1122     N1162   2.076       .  S
Co1122     N1138   2.090       .  S
Co1122    Cl1166   2.466       .  S
N1123      C1161   1.335       .  A
N1123      N1130   1.319       .  A
N1123     Co1124   2.074       .  S
Co1124     N1127   2.089       .  S
Co1124     N1144   2.087       .  S
Co1124     N1131   2.077       .  S
Co1124    Cl1166   2.430       .  S
C1125      N1163   1.349       .  A
N1126      N1133   1.320       .  A
N1126      N1156   1.326       .  A
N1126     Co1159   2.087       .  S
N1127      N1145   1.321       .  A
N1127      N1163   1.325       .  A
N1128      C1157   1.352       .  A
N1128      N1138   1.327       .  A
H1129      C1154   1.082       .  S
N1130      N1151   1.324       .  A
N1131      N1149   1.320       .  A
N1131      N1136   1.321       .  A
C1132      C1160   1.461       .  S
C1132      N1136   1.348       .  A
N1133      C1148   1.338       .  A
N1133     Co1155   2.083       .  S
C1134      C1137   1.461       .  S
C1134      H1168   1.081       .  S
C1134      N1162   1.337       .  A
C1137      N1158   1.351       .  A
N1138      N1144   1.320       .  A
N1139      C1165   1.336       .  A
N1139      N1141   1.320       .  A
N1139     Co1155   2.079       .  S
N1140      C1154   1.343       .  A
N1141      N1169   1.327       .  A
N1141     Co1159   2.086       .  S
H1142      C1165   1.082       .  S
H1143      C1160   1.081       .  S
N1145     Co1159   2.087       .  S
N1146      N1158   1.326       .  A
N1146      N1162   1.319       .  A
N1146     Co1155   2.088       .  S
C1147      C1161   1.458       .  S
C1147      N1151   1.350       .  A
C1148      C1167   1.460       .  S
C1148      H1152   1.081       .  S
N1149      C1160   1.341       .  A
N1149     Co1159   2.080       .  S
C1153      C1165   1.457       .  S
C1153      C1183   1.473       .  S
C1153      N1169   1.351       .  A
Co1155    Cl1166   2.433       .  S
N1156      C1167   1.352       .  A
Co1159    Cl1166   2.471       .  S
C1167      C1174   1.480       .  S
C1170      C1171   1.407       .  A
C1170      C1175   1.407       .  A
C1170      C1296   1.486       .  S
C1171      C1172   1.401       .  A
C1171      H1176   1.079       .  S
C1172      C1173   1.401       .  A
C1172      C1196   1.478       .  S
C1173      C1174   1.405       .  A
C1173      H1177   1.082       .  S
C1174      C1175   1.407       .  A
C1175      H1178   1.083       .  S
C1179      C1180   1.406       .  A
C1179      C1184   1.410       .  A
C1179      C1363   1.482       .  S
C1180      C1181   1.401       .  A
C1180      H1185   1.084       .  S
C1181      C1182   1.398       .  A
C1181      C1238   1.472       .  S
C1182      C1183   1.399       .  A
C1182      H1186   1.083       .  S
C1183      C1184   1.404       .  A
C1184      H1187   1.082       .  S
C1188      C1225   1.462       .  S
C1188      N1206   1.351       .  A
N1189      N1206   1.326       .  A
N1189      N1211   1.320       .  A
N1189     Co1226   2.090       .  S
C1190      C1228   1.460       .  S
C1190      H1235   1.081       .  S
H1191      C1232   1.082       .  S
C1192      C2692   1.462   1_455  S
C1192      H1221   1.081       .  S
C1192      N1216   1.340       .  A
Co1193     N1211   2.082       .  S
Co1193     N1201   2.091       .  S
Co1193     N1233   2.089       .  S
Co1193     N1209   2.084       .  S
Co1193    Cl1237   2.470       .  S
N1194      C2728   1.338       .  A
N1194      N1201   1.320   1_655  A
N1194     Co2691   2.080       .  S
Co1195     N2690   2.080       .  S
Co1195     N2694   2.086       .  S
Co1195     N1215   2.081       .  S
Co1195     N1202   2.090       .  S
Co1195    Cl2733   2.434       .  S
C1196      C2688   1.462       .  S
C1196      N1234   1.350       .  A
N1197      N1204   1.320       .  A
N1197      N1227   1.325       .  A
N1197     Co1230   2.082       .  S
N1198      N1216   1.319       .  A
N1198      N2730   1.324   1_455  A
N1198     Co2691   2.086   1_455  S
N1199      C2724   1.351   1_455  A
H1200      C1225   1.081       .  S
N1201      N1222   1.327       .  A
N1202      N2716   1.320       .  A
C1203      C2727   1.463       .  S
C1203      N1207   1.350       .  A
N1204      C1219   1.337       .  A
N1204     Co1226   2.080       .  S
C1205      C1208   1.462       .  S
C1205      H1239   1.081       .  S
C1208      N1229   1.350       .  A
N1209      N2711   1.321   1_455  A
N1210      N1212   1.321       .  A
N1210     Co1226   2.085       .  S
N1211      C1225   1.339       .  A
N1212     Co1230   2.084       .  S
H1213      C1236   1.081       .  S
H1214      C1231   1.082       .  S
N1215      N2705   1.321       .  A
N1216     Co1230   2.081       .  S
N1217      N1233   1.320       .  A
N1217     Co1226   2.087       .  S
C1218      C2563   1.477       .  S
C1218      C2728   1.458       .  S
C1218      N1222   1.352   1_655  A
C1219      C1238   1.458       .  S
C1219      H1223   1.082       .  S
N1220      N2698   1.320   1_455  A
N1220     Co1230   2.087       .  S
C1224      C1236   1.460       .  S
C1224      N1240   1.351       .  A
Co1226    Cl1237   2.435       .  S
N1227      C1238   1.350       .  A
C1228      N2695   1.351       .  A
Co1230    Cl1237   2.468       .  S
C1231      C2699   1.463   1_455  S
C1232      C2714   1.458       .  S
C1232      N2690   1.338       .  A
N1234      N2694   1.324       .  A
Cl1237    Co2691   2.434   1_455  S
C1241      C1246   1.381       .  A
C1241      C1242   1.402       .  A
C1241      O1247   1.320       .  A
C1242      C1243   1.403       .  A
C1242      H1253   1.082       .  S
C1243      C1252   1.358       .  A
C1243      C1244   1.378       .  A
C1244      C1245   1.406       .  A
C1244      O1250   1.323       .  A
C1245      C1246   1.406       .  A
C1248      C1249   1.391   1_545  A
C1249      H1255   1.082       .  S
O1250      C1251   1.336       .  A
C1251      C1252   1.397       .  A
C1252      H1256   1.081       .  S
C1257      C1262   1.381       .  A
C1257      C1258   1.405       .  A
C1257      O1263   1.319       .  A
C1258      C1259   1.404       .  A
C1258      H1269   1.082       .  S
C1259      C1268   1.364       .  A
C1259      C1260   1.379       .  A
C1260      C1261   1.403       .  A
C1260      O1266   1.317       .  A
C1261      C1262   1.401       .  A
C1261      H1270   1.082       .  S
C1262      C1265   1.361       .  A
O1263      C1264   1.330       .  A
C1264      C1265   1.389       .  A
C1265      H1271   1.082       .  S
O1266      C1267   1.332       .  A
C1267      C1268   1.397       .  A
C1268      H1272   1.081       .  S
C1273      C1278   1.382       .  A
C1273      C1274   1.400       .  A
C1273      O1279   1.317       .  A
C1274      C1275   1.400       .  A
C1274      H1285   1.082       .  S
C1275      C1284   1.357       .  A
C1275      C1276   1.379       .  A
C1276      C1277   1.403       .  A
C1276      O1282   1.318       .  A
C1277      C1278   1.402       .  A
C1277      H1286   1.082       .  S
C1278      C1281   1.360       .  A
O1279      C1280   1.329       .  A
C1280      C1281   1.389       .  A
C1281      H1287   1.082       .  S
O1282      C1283   1.333       .  A
C1283      C1284   1.394       .  A
C1284      H1288   1.081       .  S
C1289      C1294   1.378       .  A
C1289      C1290   1.406       .  A
C1289      O1295   1.321       .  A
C1290      C1291   1.406       .  A
C1290      H1301   1.082       .  S
C1291      C1300   1.365       .  A
C1291      C1292   1.381       .  A
C1292      C1293   1.399       .  A
C1292      O2794   1.316       .  A
C1293      C1294   1.399       .  A
C1293      H2798   1.082       .  S
C1294      C1297   1.356       .  A
O1295      C1296   1.334       .  A
C1296      C1297   1.395       .  A
C1297      H1303   1.081       .  S
O1298      C2788   1.316   1_455  A
O1298      C1299   1.328   1_455  A
C1299      C2796   1.392       .  A
C1300      C2795   1.392       .  A
C1300      H1304   1.082       .  S
H1302      C2789   1.082       .  S
C1305      C1310   1.382       .  A
C1305      C1306   1.402       .  A
C1305      O1311   1.317       .  A
C1306      C1307   1.401       .  A
C1306      H1317   1.082       .  S
C1307      C1316   1.359       .  A
C1307      C1308   1.378       .  A
C1308      C1309   1.402       .  A
C1308      O1314   1.317       .  A
C1309      C1310   1.402       .  A
C1309      H1318   1.082       .  S
C1310      C1313   1.361       .  A
O1311      C1312   1.329       .  A
C1312      C1313   1.390       .  A
C1313      H1319   1.082       .  S
O1314      C1315   1.332       .  A
C1315      C1316   1.396       .  A
C1316      H1320   1.081       .  S
C1321      C1326   1.378       .  A
C1321      C1322   1.402       .  A
C1321      O1327   1.317       .  A
C1322      C1323   1.402       .  A
C1322      H1333   1.082       .  S
C1323      C1332   1.361       .  A
C1323      C1324   1.381       .  A
C1324      C1325   1.404       .  A
C1324      O2826   1.319       .  A
C1325      C1326   1.403       .  A
C1325      H2830   1.082       .  S
C1326      C1329   1.362       .  A
O1327      C1328   1.332       .  A
C1328      C1329   1.395       .  A
C1329      H1335   1.081       .  S
O1330      C2820   1.319       .  A
O1330      C2827   1.330       .  A
C1331      C1332   1.391       .  A
C1331      C2479   1.482       .  S
C1331      O2826   1.330       .  A
C1332      H1336   1.082       .  S
H1334      C2821   1.082   1_455  S
C1337      C1342   1.379       .  A
C1337      C1338   1.403       .  A
C1337      O1343   1.318       .  A
C1338      C1339   1.402       .  A
C1338      H1349   1.082       .  S
C1339      C1348   1.361       .  A
C1340      C1341   1.401       .  A
C1340      O1346   1.317       .  A
C1341      H1350   1.082       .  S
C1342      C1345   1.359       .  A
O1343      C1344   1.333       .  A
C1344      C1345   1.395       .  A
C1345      H1351   1.081       .  S
O1346      C1347   1.328       .  A
C1348      H1352   1.082       .  S
C1353      C1358   1.381       .  A
C1353      C1354   1.403       .  A
C1353      O1359   1.319       .  A
C1354      C1355   1.402       .  A
C1354      H1365   1.082       .  S
C1355      C1364   1.362       .  A
C1355      C1356   1.379       .  A
C1356      C1357   1.402       .  A
C1356      O1362   1.316       .  A
C1357      C1358   1.401       .  A
C1357      H1366   1.082       .  S
C1358      C1361   1.359       .  A
O1359      C1360   1.329       .  A
C1360      C1361   1.390       .  A
C1361      H1367   1.083       .  S
O1362      C1363   1.332       .  A
C1363      C1364   1.395       .  A
C1364      H1368   1.082       .  S
C1369      C1374   1.381       .  A
C1369      C1370   1.402       .  A
C1369      O1375   1.319       .  A
C1370      C1371   1.402       .  A
C1370      H1381   1.082       .  S
C1371      C1380   1.359       .  A
C1371      C1372   1.378       .  A
C1372      C1373   1.404       .  A
C1372      O1378   1.320       .  A
C1373      C1374   1.404       .  A
C1373      H1382   1.082       .  S
C1376      C1377   1.391       .  A
C1377      H1383   1.082       .  S
O1378      C1379   1.333       .  A
C1379      C1380   1.396       .  A
C1380      H1384   1.081       .  S
C1385      C1390   1.381       .  A
C1385      C1386   1.402       .  A
C1385      O1391   1.318       .  A
C1386      C1387   1.402       .  A
C1386      H1397   1.082       .  S
C1387      C1396   1.361       .  A
C1387      C1388   1.378       .  A
C1388      C1389   1.403       .  A
C1388      O1394   1.317       .  A
C1389      C1390   1.402       .  A
C1389      H1398   1.082       .  S
C1390      C1393   1.361       .  A
O1391      C1392   1.329       .  A
C1392      C1393   1.389       .  A
C1393      H1399   1.082       .  S
O1394      C1395   1.333       .  A
C1395      C1396   1.396       .  A
C1396      H1400   1.081       .  S
C1401      C1406   1.379       .  A
C1401      C1402   1.403       .  A
C1401      O1407   1.319       .  A
C1402      C1403   1.403       .  A
C1402      H1413   1.082       .  S
C1403      C1404   1.382       .  A
C1404      C1405   1.402       .  A
C1405      C1406   1.402       .  A
C1405      H1414   1.082       .  S
C1406      C1409   1.359       .  A
O1407      C1408   1.333       .  A
C1408      C1409   1.396       .  A
C1409      H1415   1.081       .  S
O1410      C1411   1.329   1_565  A
C1411      C1412   1.389       .  A
C1412      H1416   1.082       .  S
C1417      C1422   1.381       .  A
C1417      C1418   1.401       .  A
C1417      O1423   1.317       .  A
C1418      C1419   1.401       .  A
C1418      H1429   1.082       .  S
C1419      C1428   1.359       .  A
C1419      C1420   1.378       .  A
C1420      C1421   1.406       .  A
C1420      O1426   1.321       .  A
C1421      C1422   1.405       .  A
C1421      H1430   1.082       .  S
C1422      C1425   1.364       .  A
O1423      C1424   1.329       .  A
C1424      C1425   1.391       .  A
C1425      H1431   1.082       .  S
O1426      C1427   1.335       .  A
C1427      C1428   1.396       .  A
C1428      H1432   1.081       .  S
C1433      C1438   1.381       .  A
C1433      C1434   1.405       .  A
C1433      O1439   1.321       .  A
C1434      C1435   1.405       .  A
C1434      H1445   1.082       .  S
C1435      C1444   1.363       .  A
C1435      C1436   1.379       .  A
C1436      C1437   1.402       .  A
C1436      O1442   1.318       .  A
C1437      C1438   1.402       .  A
C1437      H2942   1.082       .  S
C1438      C2937   1.360       .  A
O1439      C1440   1.331       .  A
C1440      C2937   1.389       .  A
C1440      C2478   1.481       .  S
C1441      C2934   1.360   1_455  A
C1441      C2936   1.389   1_455  A
C1441      H1447   1.082       .  S
O1442      C1443   1.332       .  A
C1443      C1444   1.398       .  A
C1444      H1448   1.081       .  S
H1446      C2933   1.082   1_455  S
C1449      C1454   1.380       .  A
C1449      C1450   1.403       .  A
C1449      O1455   1.318       .  A
C1450      C1451   1.402       .  A
C1450      H1461   1.082       .  S
C1451      C1460   1.361       .  A
C1451      C1452   1.378       .  A
C1452      C1453   1.408       .  A
C1452      O1458   1.322       .  A
C1453      C1454   1.407       .  A
C1453      H1462   1.082       .  S
C1454      C1457   1.367       .  A
O1455      C1456   1.330       .  A
C1456      C1457   1.393       .  A
C1457      H1463   1.082       .  S
O1458      C1459   1.336       .  A
C1459      C1460   1.397       .  A
C1460      H1464   1.081       .  S
C1465      C1470   1.378       .  A
C1465      C1466   1.403       .  A
C1465      O1471   1.318       .  A
C1466      C1467   1.402       .  A
C1466      H1477   1.082       .  S
C1467      C1476   1.361       .  A
C1467      C1468   1.381       .  A
C1468      C1469   1.401       .  A
C1468      O1474   1.316       .  A
C1469      C1470   1.401       .  A
C1469      H1478   1.082       .  S
C1470      C1473   1.358       .  A
O1471      C1472   1.332       .  A
C1472      C1473   1.397       .  A
C1473      H1479   1.081       .  S
O1474      C1475   1.329       .  A
C1475      C1476   1.390       .  A
C1476      H1480   1.082       .  S
C1481      C1486   1.379       .  A
C1481      C2978   1.403       .  A
C1481      O1487   1.317       .  A
C1482      C2977   1.403       .  A
C1482      C1483   1.402       .  A
C1482      H1493   1.082   1_655  S
C1483      C1492   1.360   1_655  A
C1483      C2980   1.382       .  A
C1484      C2979   1.382       .  A
C1484      C1485   1.401       .  A
C1484      O1490   1.317       .  A
C1485      C1486   1.401       .  A
C1485      H1494   1.082       .  S
C1486      C1489   1.360       .  A
O1487      C1488   1.333       .  A
C1488      C1489   1.394       .  A
C1489      H1495   1.081       .  S
O1490      C2987   1.328       .  A
C1491      C1492   1.389   1_655  A
C1491      O2986   1.328       .  A
C1492      H1496   1.082       .  S
C1497      C1498   1.410       .  A
C1497      C1502   1.404       .  A
C1497      C2236   1.482       .  S
C1498      C1499   1.405       .  A
C1498      H1503   1.081       .  S
C1499      C1500   1.402       .  A
C1499      C1652   1.476       .  S
C1500      C1501   1.401       .  A
C1500      H1504   1.084       .  S
C1501      C1502   1.399       .  A
C1501      C1533   1.470       .  S
C1502      H1505   1.084       .  S
C1506      C1507   1.405       .  A
C1506      C1511   1.408       .  A
C1506      C2220   1.486       .  S
C1507      C1508   1.401       .  A
C1507      H1512   1.080       .  S
C1508      C1509   1.401       .  A
C1508      C1583   1.476       .  S
C1509      C1510   1.403       .  A
C1509      H1513   1.083       .  S
C1510      C1511   1.406       .  A
C1510      C1630   1.478       .  S
C1511      H1514   1.083       .  S
C1515      C1516   1.407       .  A
C1515      C1520   1.409       .  A
C1515      C2207   1.495       .  S
C1516      C1517   1.410       .  A
C1516      H1521   1.082       .  S
C1517      C1518   1.406       .  A
C1517      C1622   1.485       .  S
C1518      C1519   1.406       .  A
C1518      H1522   1.084       .  S
C1519      C1520   1.408       .  A
C1519      C1553   1.485       .  S
C1520      H1523   1.079       .  S
C1524      C1525   1.407       .  A
C1524      C1529   1.407       .  A
C1524      C2191   1.487       .  S
C1525      C1526   1.403       .  A
C1525      H1530   1.081       .  S
C1526      C1527   1.405       .  A
C1526      C1637   1.478       .  S
C1527      C1528   1.406       .  A
C1527      H1531   1.084       .  S
C1528      C1529   1.405       .  A
C1529      H1532   1.083       .  S
N1534      N1551   1.322       .  A
N1534      N1556   1.319       .  A
N1534     Co1571   2.073       .  S
C1535      C2321   1.459       .  S
C1535      H1580   1.082       .  S
C1535      N2308   1.339   1_545  A
H1536      C1577   1.081       .  S
C1537      C2289   1.464       .  S
C1537      H1566   1.082       .  S
C1537      N1561   1.343       .  A
Co1538     N1556   2.086       .  S
Co1538     N1546   2.086       .  S
Co1538     N1578   2.084       .  S
Co1538     N1554   2.087       .  S
Co1538    Cl1582   2.466       .  S
N1539      C2325   1.336       .  A
N1539      N1546   1.320       .  A
N1539     Co1540   2.077       .  S
Co1540     N1543   2.086       .  S
Co1540     N1560   2.082       .  S
Co1540     N1547   2.082       .  S
Co1540    Cl1582   2.434       .  S
C1541      C2285   1.464   1_545  S
C1541      N1579   1.350       .  A
N1542      N1549   1.320       .  A
N1542      N1572   1.323       .  A
N1542     Co1575   2.082       .  S
N1543      N1561   1.320       .  A
N1543      N2327   1.326       .  A
N1544      C1573   1.352       .  A
N1544      N1554   1.326       .  A
H1545      C1570   1.082       .  S
N1546      N1567   1.326       .  A
N1547      N1565   1.320       .  A
N1547      N2300   1.323       .  A
C1548      C1576   1.462       .  S
C1548      C2365   1.474       .  S
C1548      N2300   1.349       .  A
N1549      C1564   1.341       .  A
N1549     Co1571   2.087       .  S
C1550      C1553   1.462       .  S
C1550      H1584   1.081       .  S
C1550      N1578   1.340       .  A
N1552      C2296   1.349       .  A
N1552      N2295   1.322   1_545  A
C1553      N1574   1.354       .  A
N1554      N1560   1.319       .  A
N1555      C1581   1.336       .  A
N1555      N1557   1.320       .  A
N1555     Co1571   2.076       .  S
N1556      C1570   1.342       .  A
N1557      N1585   1.327       .  A
N1557     Co1575   2.089       .  S
H1558      C1581   1.082       .  S
H1559      C1576   1.081       .  S
N1560      C2283   1.339       .  A
N1561     Co1575   2.092       .  S
N1562      N1574   1.328       .  A
N1562      N1578   1.320       .  A
N1562     Co1571   2.101       .  S
C1563      C1577   1.458       .  S
C1563      N2315   1.351   1_545  A
C1564      H1568   1.081       .  S
N1565      C1576   1.340       .  A
N1565     Co1575   2.079       .  S
N1567      C2311   1.351       .  A
C1569      C1581   1.459       .  S
C1569      C1590   1.476       .  S
C1569      N1585   1.351       .  A
Co1571    Cl1582   2.438       .  S
C1573      C2283   1.459       .  S
C1573      C2356   1.477       .  S
Co1575    Cl1582   2.466       .  S
C1577      N2287   1.336   1_545  A
N1579      N2291   1.326   1_545  A
C1586      C1587   1.412       .  A
C1586      C1591   1.413       .  A
C1586      C2175   1.491       .  S
C1587      C1588   1.406       .  A
C1587      H1592   1.083       .  S
C1588      C1589   1.397       .  A
C1588      C1672   1.477       .  S
C1589      C1590   1.397       .  A
C1589      H1593   1.083       .  S
C1590      C1591   1.403       .  A
C1591      H1594   1.080       .  S
C1595      C1596   1.410       .  A
C1595      C1600   1.410       .  A
C1595      C2156   1.486       .  S
C1596      C1597   1.401       .  A
C1597      C1598   1.397       .  A
C1598      C1599   1.399       .  A
C1598      H1602   1.082       .  S
C1599      C1600   1.406       .  A
C1599      C1662   1.476       .  S
C1600      H1603   1.083       .  S
C1604      C1605   1.406       .  A
C1604      C1609   1.410       .  A
C1604      C2143   1.486       .  S
C1605      C1606   1.401       .  A
C1605      H1610   1.084       .  S
C1606      C1607   1.401       .  A
C1606      C1642   1.472       .  S
C1607      C1608   1.402       .  A
C1607      H1611   1.084       .  S
C1608      C1609   1.405       .  A
C1608      C2321   1.477       .  S
C1609      H1612   1.081       .  S
C1613      C1614   1.407       .  A
C1613      C1618   1.407       .  A
C1613      C2127   1.487       .  S
C1614      C1615   1.407       .  A
C1614      H1619   1.083       .  S
C1615      C1616   1.402       .  A
C1615      C1658   1.480       .  S
C1616      C1617   1.402       .  A
C1616      H1620   1.083       .  S
C1617      C1618   1.401       .  A
C1617      C2296   1.474       .  S
C1618      H1621   1.080       .  S
C1622      C1659   1.460       .  S
C1622      N1640   1.355       .  A
N1623      N1640   1.328       .  A
N1623      N1645   1.321       .  A
N1623     Co1660   2.108       .  S
C1624      C1662   1.461       .  S
C1624      H1669   1.081       .  S
C1624      N1649   1.336       .  A
H1625      C1666   1.082       .  S
C1626      C1630   1.462       .  S
C1626      H1655   1.081       .  S
C1626      N1650   1.343       .  A
Co1627     N1645   2.081       .  S
Co1627     N1635   2.088       .  S
Co1627     N1667   2.084       .  S
Co1627     N1643   2.081       .  S
Co1627    Cl1671   2.469       .  S
N1628      C1666   1.339       .  A
N1628      N1635   1.320       .  A
N1628     Co1629   2.081       .  S
Co1629     N1632   2.091       .  S
Co1629     N1649   2.083       .  S
Co1629     N1636   2.084       .  S
Co1629    Cl1671   2.434       .  S
C1630      N1668   1.350       .  A
N1631      N1638   1.320       .  A
N1631      N1661   1.327       .  A
N1631     Co1664   2.085       .  S
N1632      N1650   1.320       .  A
N1632      N1668   1.324       .  A
N1633      C1662   1.350       .  A
N1633      N1643   1.326       .  A
H1634      C1659   1.081       .  S
N1635      N1656   1.326       .  A
N1636      N1654   1.319       .  A
N1636      N1641   1.325       .  A
C1637      C1665   1.463       .  S
C1637      N1641   1.350       .  A
N1638      C1653   1.337       .  A
N1638     Co1660   2.084       .  S
C1639      C1642   1.462       .  S
C1639      H1673   1.082       .  S
C1639      N1667   1.342       .  A
C1642      N1663   1.348       .  A
N1643      N1649   1.320       .  A
N1644      C1670   1.342       .  A
N1644      N1646   1.320       .  A
N1644     Co1660   2.096       .  S
N1645      C1659   1.340       .  A
N1646      N1674   1.325       .  A
N1646     Co1664   2.080       .  S
H1647      C1670   1.081       .  S
H1648      C1665   1.082       .  S
N1650     Co1664   2.084       .  S
N1651      N1663   1.323       .  A
N1651      N1667   1.319       .  A
N1651     Co1660   2.079       .  S
C1652      C1666   1.458       .  S
C1652      N1656   1.351       .  A
C1653      C1672   1.461       .  S
C1653      H1657   1.082       .  S
N1654      C1665   1.341       .  A
N1654     Co1664   2.086       .  S
C1658      C1670   1.464       .  S
C1658      N1674   1.350       .  A
Co1660    Cl1671   2.436       .  S
N1661      C1672   1.350       .  A
Co1664    Cl1671   2.469       .  S
N1675      C1680   1.354       .  A
N1675      C1679   1.353       .  A
N1675      H1707   1.033       .  S
N1676      C1683   1.351       .  A
N1676      C1684   1.353       .  A
N1677      C1682   1.353       .  A
N1677      C1681   1.354       .  A
N1677      H1708   1.029       .  S
N1678      C1685   1.350       .  A
N1678      C1686   1.350       .  A
C1679      C1687   1.388       .  A
C1679      C1695   1.418       .  A
C1680      C1696   1.417       .  A
C1680      C1688   1.388       .  A
C1681      C1689   1.388       .  A
C1681      C1698   1.420       .  A
C1682      C1697   1.419       .  A
C1682      C1690   1.387       .  A
C1683      C1695   1.415       .  A
C1683      C1691   1.387       .  A
C1684      C1698   1.417       .  A
C1684      C1692   1.386       .  A
C1685      C1693   1.386       .  A
C1685      C1696   1.411       .  A
C1686      C1694   1.386       .  A
C1686      C1697   1.412       .  A
C1687      C1688   1.373       .  A
C1687      H1699   1.082       .  S
C1688      H1700   1.082       .  S
C1689      C1690   1.372       .  A
C1689      H1701   1.082       .  S
C1690      H1702   1.082       .  S
C1691      C1692   1.376       .  A
C1691      H1703   1.082       .  S
C1692      H1704   1.082       .  S
C1693      C1694   1.374       .  A
C1693      H2453   1.082       .  S
C1694      H2454   1.082       .  S
C1695      C2108   1.478       .  S
C1696      C2095   1.475       .  S
C1697      C2159   1.477       .  S
C1698      C2204   1.483       .  S
H1705      C2441   1.082       .  S
H1706      C2442   1.082       .  S
N1709      C1714   1.356       .  A
N1709      C1713   1.356       .  A
N1709      H1741   1.036       .  S
N1710      C1717   1.349       .  A
N1710      C1718   1.350       .  A
N1711      C1716   1.355       .  A
N1711      C1715   1.355       .  A
N1711      H1742   1.030   1_556  S
N1712      C1719   1.350       .  A
N1712      C1720   1.351       .  A
C1713      C1721   1.388       .  A
C1713      C1729   1.419       .  A
C1714      C1730   1.419       .  A
C1714      C1722   1.387       .  A
C1715      C1723   1.388       .  A
C1715      C1732   1.422       .  A
C1716      C1731   1.424       .  A
C1716      C1724   1.390       .  A
C1717      C1729   1.412       .  A
C1717      C1725   1.386       .  A
C1718      C1732   1.413   1_554  A
C1718      C1726   1.387       .  A
C1719      C1730   1.414       .  A
C1720      C1731   1.416   1_554  A
C1721      C1722   1.372       .  A
C1721      H1733   1.082       .  S
C1722      H1734   1.082       .  S
C1723      C1724   1.369       .  A
C1723      H1735   1.082       .  S
C1724      H1736   1.081       .  S
C1725      C1726   1.374       .  A
C1725      H1737   1.082       .  S
C1726      H1738   1.082   1_554  S
C1727      C1728   1.375       .  A
C1727      H1739   1.082       .  S
C1728      H1740   1.082   1_554  S
C1729      C2172   1.479       .  S
C1732      C2060   1.478       .  S
N1743      C1748   1.352       .  A
N1743      C1747   1.353       .  A
N1743      H1775   1.033       .  S
N1744      C1751   1.350       .  A
N1744      C1752   1.350       .  A
N1745      C1750   1.353       .  A
N1745      C1749   1.352       .  A
N1745      H1776   1.033       .  S
N1746      C1753   1.350       .  A
N1746      C1754   1.351       .  A
C1747      C1755   1.388       .  A
C1747      C1763   1.416       .  A
C1748      C1764   1.416       .  A
C1748      C1756   1.388       .  A
C1749      C1757   1.388       .  A
C1749      C1766   1.416       .  A
C1750      C1765   1.416       .  A
C1750      C1758   1.388       .  A
C1751      C1763   1.412       .  A
C1751      C1759   1.386       .  A
C1752      C1766   1.411       .  A
C1752      C1760   1.386       .  A
C1753      C1764   1.412       .  A
C1754      C1765   1.411       .  A
C1755      C1756   1.374       .  A
C1755      H1767   1.082       .  S
C1756      H1768   1.082       .  S
C1757      C1758   1.372       .  A
C1757      H1769   1.082       .  S
C1758      H1770   1.082       .  S
C1759      C1760   1.375       .  A
C1759      H1771   1.082       .  S
C1760      H1772   1.082       .  S
C1761      C1762   1.375       .  A
C1761      H1773   1.082       .  S
C1762      H1774   1.082       .  S
C1763      C2140   1.477       .  S
C1764      C2239   1.474       .  S
C1765      C2047   1.477       .  S
C1766      C2028   1.474       .  S
N1777      C1782   1.357       .  A
N1777      C1781   1.356       .  A
N1777      H1809   1.036       .  S
N1778      C1785   1.349   1_554  A
N1778      C1786   1.350       .  A
N1779      C1784   1.353       .  A
N1779      C1783   1.352       .  A
N1779      H1810   1.033       .  S
N1780      C1787   1.350   1_554  A
N1780      C1788   1.351       .  A
C1781      C1789   1.387       .  A
C1781      C1797   1.419       .  A
C1782      C1798   1.421       .  A
C1782      C1790   1.388       .  A
C1783      C1791   1.389       .  A
C1783      C1800   1.417       .  A
C1784      C1799   1.416       .  A
C1784      C1792   1.387       .  A
C1785      C1797   1.411       .  A
C1785      C1793   1.387   1_556  A
C1786      C1800   1.411       .  A
C1786      C1794   1.386       .  A
C1787      C2543   1.387   1_556  A
C1787      C1798   1.412       .  A
C1788      C2544   1.385       .  A
C1788      C1799   1.412       .  A
C1789      C1790   1.374       .  A
C1789      H1801   1.082       .  S
C1790      H1802   1.082       .  S
C1791      C1792   1.371       .  A
C1791      H1803   1.081       .  S
C1792      H1804   1.082       .  S
C1793      C1794   1.375       .  A
C1793      H1805   1.082   1_554  S
C1794      H1806   1.082       .  S
C1795      C2535   1.387   1_554  A
C1795      C1796   1.376       .  A
C1795      H1807   1.082   1_554  S
C1796      C2536   1.385   1_545  A
C1796      H1808   1.082       .  S
C1797      C2012   1.479       .  S
C1798      C1996   1.482       .  S
C1799      C2124   1.479       .  S
C1800      C2223   1.475       .  S
C1811      C1812   1.410       .  A
C1811      C1816   1.408       .  A
C1811      C2015   1.488       .  S
C1812      C1813   1.405       .  A
C1812      H1817   1.081       .  S
C1813      C1814   1.402       .  A
C1813      C1865   1.476       .  S
C1814      C1815   1.402       .  A
C1814      H1818   1.084       .  S
C1815      C1816   1.403       .  A
C1816      H1819   1.084       .  S
C1820      C1821   1.412       .  A
C1820      C1825   1.406       .  A
C1820      C2076   1.484       .  S
C1821      C1822   1.406       .  A
C1821      H1826   1.081       .  S
C1822      C1823   1.399       .  A
C1822      C1976   1.477       .  S
C1823      C1824   1.397       .  A
C1823      H1827   1.081       .  S
C1824      C1825   1.400       .  A
C1824      C1895   1.472       .  S
C1825      H1828   1.084       .  S
C1829      C1830   1.412       .  A
C1829      C1834   1.411       .  A
C1829      C1999   1.494       .  S
C1830      C1831   1.403       .  A
C1830      H1835   1.080       .  S
C1831      C1832   1.400       .  A
C1831      C1905   1.480       .  S
C1832      C1833   1.402       .  A
C1832      H1836   1.084       .  S
C1833      C1834   1.408       .  A
C1833      C1956   1.478       .  S
C1834      H1837   1.083       .  S
C1838      C1839   1.403       .  A
C1838      C1843   1.403       .  A
C1838      C2063   1.485       .  S
C1839      C1840   1.403       .  A
C1839      H1844   1.079       .  S
C1840      C1841   1.406       .  A
C1840      C1885   1.478       .  S
C1841      C1842   1.407       .  A
C1841      H1845   1.084       .  S
C1842      C1843   1.405       .  A
C1842      C1936   1.479       .  S
C1843      H1846   1.082       .  S
C1847      C1848   1.405       .  A
C1847      C1852   1.408       .  A
C1847      C2031   1.483       .  S
C1848      C1849   1.403       .  A
C1848      H1853   1.083       .  S
C1849      C1850   1.401       .  A
C1849      C1880   1.472       .  S
C1850      C1851   1.400       .  A
C1850      H1854   1.083       .  S
C1851      C1852   1.402       .  A
C1851      C1972   1.476       .  S
C1852      H1855   1.080       .  S
C1856      C1857   1.405       .  A
C1856      C1861   1.408       .  A
C1856      C2092   1.485       .  S
C1857      C1858   1.403       .  A
C1857      H1862   1.083       .  S
C1858      C1859   1.405       .  A
C1858      C1873   1.477       .  S
C1859      C1860   1.405       .  A
C1859      H1863   1.084       .  S
C1860      C1861   1.404       .  A
C1860      C1951   1.479       .  S
C1861      H1864   1.081       .  S
C1865      C1902   1.462       .  S
C1865      N1883   1.350       .  A
N1866      N1883   1.324       .  A
N1866      N1888   1.320       .  A
N1866     Co1903   2.086       .  S
C1867      C1905   1.460       .  S
C1867      H1912   1.082       .  S
C1867      N1892   1.340       .  A
H1868      C1909   1.081       .  S
C1869      C1873   1.463       .  S
C1869      H1898   1.082       .  S
C1869      N1893   1.342       .  A
Co1870     N1888   2.088       .  S
Co1870     N1878   2.077       .  S
Co1870     N1910   2.077       .  S
Co1870     N1886   2.089       .  S
Co1870    Cl1914   2.466       .  S
N1871      C1909   1.335       .  A
N1871      N1878   1.319       .  A
N1871     Co1872   2.074       .  S
Co1872     N1875   2.088       .  S
Co1872     N1892   2.086       .  S
Co1872     N1879   2.076       .  S
Co1872    Cl1914   2.430       .  S
C1873      N1911   1.349       .  A
N1874      N1881   1.320       .  A
N1874      N1904   1.327       .  A
N1874     Co1907   2.088       .  S
N1875      N1893   1.321       .  A
N1875      N1911   1.325       .  A
N1876      C1905   1.352       .  A
N1876      N1886   1.327       .  A
H1877      C1902   1.082       .  S
N1878      N1899   1.324       .  A
N1879      N1897   1.319       .  A
N1879      N1884   1.322       .  A
C1880      C1908   1.461       .  S
C1880      N1884   1.348       .  A
N1881      C1896   1.338       .  A
N1881     Co1903   2.083       .  S
C1882      C1885   1.461       .  S
C1882      H1916   1.081       .  S
C1882      N1910   1.337       .  A
C1885      N1906   1.351       .  A
N1886      N1892   1.320       .  A
N1887      C1913   1.336       .  A
N1887      N1889   1.320       .  A
N1887     Co1903   2.078       .  S
N1888      C1902   1.343       .  A
N1889      N1917   1.326       .  A
N1889     Co1907   2.086       .  S
H1890      C1913   1.081       .  S
H1891      C1908   1.081       .  S
N1893     Co1907   2.088       .  S
N1894      N1906   1.326       .  A
N1894      N1910   1.319       .  A
N1894     Co1903   2.089       .  S
C1895      C1909   1.458       .  S
C1895      N1899   1.350       .  A
C1896      C1915   1.460       .  S
C1896      H1900   1.081       .  S
N1897      C1908   1.341       .  A
N1897     Co1907   2.080       .  S
C1901      C1913   1.457       .  S
C1901      C1931   1.473       .  S
C1901      N1917   1.351       .  A
Co1903    Cl1914   2.433       .  S
N1904      C1915   1.352       .  A
Co1907    Cl1914   2.471       .  S
C1915      C1922   1.480       .  S
C1918      C1919   1.407       .  A
C1918      C1923   1.407       .  A
C1918      C2044   1.486       .  S
C1919      C1920   1.401       .  A
C1919      H1924   1.079       .  S
C1920      C1921   1.401       .  A
C1920      C1944   1.478       .  S
C1921      C1922   1.405       .  A
C1921      H1925   1.082       .  S
C1922      C1923   1.407       .  A
C1923      H1926   1.083       .  S
C1927      C1928   1.406       .  A
C1927      C1932   1.410       .  A
C1927      C2111   1.482       .  S
C1928      C1929   1.401       .  A
C1928      H1933   1.084       .  S
C1929      C1930   1.398       .  A
C1929      C1986   1.472       .  S
C1930      C1931   1.399       .  A
C1930      H1934   1.083       .  S
C1931      C1932   1.404       .  A
C1932      H1935   1.082       .  S
C1936      C1973   1.461       .  S
C1936      N1954   1.351       .  A
N1937      N1954   1.326       .  A
N1937      N1959   1.320       .  A
N1937     Co1974   2.090       .  S
C1938      C1976   1.460       .  S
C1938      H1983   1.081       .  S
C1938      N2711   1.335   1_545  A
H1939      C1980   1.082       .  S
C1940      H1969   1.081       .  S
C1940      N1964   1.340       .  A
Co1941     N1959   2.082       .  S
Co1941     N1949   2.090       .  S
Co1941     N1981   2.088       .  S
Co1941     N1957   2.083       .  S
Co1941    Cl1985   2.469       .  S
N1942      N1949   1.320       .  A
Co1943     N1963   2.081       .  S
Co1943     N1950   2.089       .  S
C1944      N1982   1.350       .  A
N1945      N1952   1.320       .  A
N1945      N1975   1.325       .  A
N1945     Co1978   2.082       .  S
N1946      N1964   1.319       .  A
N1947      N2705   1.326   1_545  A
H1948      C1973   1.081       .  S
N1949      N1970   1.326       .  A
N1950      N2703   1.326       .  A
C1951      N1955   1.350       .  A
N1952      C1967   1.337       .  A
N1952     Co1974   2.080       .  S
C1953      C1956   1.462       .  S
C1953      H1987   1.081       .  S
C1953      N2729   1.344   1_545  A
N1955      N2698   1.326   1_545  A
C1956      N1977   1.350       .  A
N1957      N2695   1.326       .  A
N1958      C2732   1.339       .  A
N1958      N1960   1.321       .  A
N1958     Co1974   2.084       .  S
N1959      C1973   1.339       .  A
N1960      N2736   1.324       .  A
N1960     Co1978   2.084       .  S
H1961      C1984   1.081       .  S
H1962      C1979   1.082       .  S
N1963      C2686   1.335       .  A
N1964     Co1978   2.082       .  S
N1965      N2725   1.324       .  A
N1965      N1981   1.320       .  A
N1965     Co1974   2.088       .  S
C1966      N1970   1.352       .  A
C1967      C1986   1.458       .  S
C1967      H1971   1.082       .  S
N1968      C2727   1.342       .  A
N1968     Co1978   2.088       .  S
C1972      C1984   1.460       .  S
C1972      N1988   1.351       .  A
Co1974    Cl1985   2.435       .  S
N1975      C1986   1.350       .  A
N1977      N2713   1.324   1_545  A
Co1978    Cl1985   2.467       .  S
C1979      N2716   1.342   1_545  A
N1981      C2701   1.344       .  A
C1984      N2706   1.339   1_545  A
N1988      N2708   1.324   1_545  A
C1989      C1994   1.381       .  A
C1989      C1990   1.402       .  A
C1989      O1995   1.320       .  A
C1990      C1991   1.403       .  A
C1990      H2001   1.082       .  S
C1991      C2000   1.358       .  A
C1991      C1992   1.378       .  A
C1992      C1993   1.406       .  A
C1992      O1998   1.323       .  A
C1993      C1994   1.406       .  A
C1993      H2750   1.082   1_545  S
C1994      C2745   1.363   1_545  A
O1995      C2744   1.330       .  A
C1996      C1997   1.391       .  A
C1996      O2743   1.330       .  A
C1997      C2742   1.363       .  A
C1997      H2003   1.082       .  S
O1998      C1999   1.335       .  A
C1999      C2000   1.397       .  A
C2000      H2004   1.081       .  S
H2002      C2741   1.082       .  S
C2005      C2010   1.381       .  A
C2005      C2006   1.405       .  A
C2005      O2011   1.319       .  A
C2006      C2007   1.404       .  A
C2006      H2017   1.082       .  S
C2007      C2016   1.364       .  A
C2007      C2008   1.379       .  A
C2008      C2009   1.402       .  A
C2008      O2014   1.317       .  A
C2009      C2010   1.401       .  A
C2009      H2018   1.082       .  S
C2010      C2013   1.361       .  A
O2011      C2012   1.330       .  A
C2012      C2013   1.389       .  A
C2013      H2019   1.082       .  S
O2014      C2015   1.332       .  A
C2015      C2016   1.398       .  A
C2016      H2020   1.081       .  S
C2021      C2026   1.382       .  A
C2021      C2022   1.400       .  A
C2021      O2027   1.317       .  A
C2022      C2023   1.400       .  A
C2022      H2033   1.082       .  S
C2023      C2032   1.357       .  A
C2023      C2024   1.378       .  A
C2024      C2025   1.403       .  A
C2024      O2030   1.318       .  A
C2025      C2026   1.403       .  A
C2025      H2034   1.082       .  S
C2026      C2029   1.360       .  A
O2027      C2028   1.329       .  A
C2028      C2029   1.389       .  A
C2029      H2035   1.082       .  S
O2030      C2031   1.333       .  A
C2031      C2032   1.394       .  A
C2032      H2036   1.081       .  S
C2037      C2042   1.378       .  A
C2037      C2038   1.406       .  A
C2037      O2043   1.321       .  A
C2038      C2039   1.406       .  A
C2038      H2049   1.082       .  S
C2039      C2048   1.364       .  A
C2039      C2040   1.381       .  A
C2040      C2041   1.400   1_655  A
C2041      C2042   1.399   1_455  A
C2042      C2045   1.356       .  A
O2043      C2044   1.334       .  A
C2044      C2045   1.395       .  A
C2045      H2051   1.081   1_655  S
O2046      C2047   1.328       .  A
C2048      H2052   1.082       .  S
C2053      C2058   1.382       .  A
C2053      C2054   1.402       .  A
C2053      O2059   1.317       .  A
C2054      C2055   1.401       .  A
C2054      H2065   1.082       .  S
C2055      C2064   1.359       .  A
C2055      C2056   1.378       .  A
C2056      C2057   1.402       .  A
C2056      O2062   1.317       .  A
C2057      C2058   1.402       .  A
C2057      H2066   1.082       .  S
C2058      C2061   1.361       .  A
O2059      C2060   1.329       .  A
C2060      C2061   1.391       .  A
C2061      H2067   1.082       .  S
O2062      C2063   1.332       .  A
C2063      C2064   1.396       .  A
C2064      H2068   1.081       .  S
C2069      C2074   1.378       .  A
C2069      C2070   1.402       .  A
C2069      O2075   1.317       .  A
C2070      C2071   1.402       .  A
C2070      H2081   1.082       .  S
C2071      C2080   1.360       .  A
C2071      C2072   1.381       .  A
C2072      C2073   1.404       .  A
C2073      C2074   1.403       .  A
C2074      C2077   1.362       .  A
O2075      C2076   1.332       .  A
C2076      C2077   1.395       .  A
C2077      H2083   1.081       .  S
C2079      C2080   1.391       .  A
C2080      H2084   1.083       .  S
C2085      C2090   1.379       .  A
C2085      C2086   1.403       .  A
C2085      O2091   1.318       .  A
C2086      C2087   1.402       .  A
C2086      H2097   1.082       .  S
C2087      C2096   1.361       .  A
C2087      C2836   1.381       .  A
C2088      C2835   1.381       .  A
C2088      C2089   1.401       .  A
C2088      O2094   1.317       .  A
C2089      C2838   1.401       .  A
C2089      H2098   1.082       .  S
C2090      C2837   1.401       .  A
C2090      C2093   1.360       .  A
O2091      C2092   1.333       .  A
C2092      C2093   1.395       .  A
C2093      H2099   1.081       .  S
O2094      C2095   1.328       .  A
C2095      C2844   1.389       .  A
C2096      C2843   1.389       .  A
C2096      H2100   1.082       .  S
C2101      C2106   1.381       .  A
C2101      C2102   1.403       .  A
C2101      O2107   1.319       .  A
C2102      C2103   1.402       .  A
C2102      H2113   1.082       .  S
C2103      C2112   1.362       .  A
C2103      C2104   1.379       .  A
C2104      C2105   1.402       .  A
C2104      O2110   1.316       .  A
C2105      C2106   1.401       .  A
C2105      H2114   1.082       .  S
C2106      C2109   1.359       .  A
O2107      C2108   1.329       .  A
C2108      C2109   1.390       .  A
C2109      H2115   1.083       .  S
O2110      C2111   1.332       .  A
C2111      C2112   1.395       .  A
C2112      H2116   1.082       .  S
C2117      C2122   1.381       .  A
C2117      C2118   1.402       .  A
C2117      O2123   1.319   1_545  A
C2118      C2119   1.402       .  A
C2118      H2129   1.082   1_545  S
C2119      C2128   1.359       .  A
C2119      C2120   1.378       .  A
C2120      C2121   1.404       .  A
C2120      O2126   1.320       .  A
C2121      C2122   1.404       .  A
C2121      H2130   1.082       .  S
C2122      C2873   1.361       .  A
O2123      C2872   1.330   1_565  A
C2124      C2125   1.391       .  A
C2124      O2871   1.330       .  A
C2125      C2870   1.361       .  A
C2125      H2131   1.082       .  S
O2126      C2127   1.333       .  A
C2127      C2128   1.396       .  A
C2128      H2132   1.081       .  S
C2133      C2138   1.381       .  A
C2133      C2134   1.402       .  A
C2133      O2139   1.318       .  A
C2134      C2135   1.402       .  A
C2134      H2145   1.082       .  S
C2135      C2144   1.361       .  A
C2135      C2136   1.378       .  A
C2136      C2137   1.403       .  A
C2136      O2142   1.317       .  A
C2137      C2138   1.402       .  A
C2137      H2146   1.082       .  S
C2138      C2141   1.361       .  A
O2139      C2140   1.329       .  A
C2140      C2141   1.389       .  A
C2141      H2147   1.082       .  S
O2142      C2143   1.333       .  A
C2143      C2144   1.396       .  A
C2144      H2148   1.081       .  S
C2149      C2154   1.379       .  A
C2149      C2150   1.403       .  A
C2149      O2155   1.319       .  A
C2150      C2151   1.403       .  A
C2150      H2161   1.082       .  S
C2151      C2908   1.359       .  A
C2151      C2152   1.382       .  A
C2152      C2153   1.402       .  A
C2152      O2906   1.319   1_545  A
C2153      C2154   1.402       .  A
C2153      H2162   1.082   1_545  S
C2154      C2157   1.358       .  A
O2155      C2156   1.333       .  A
C2156      C2157   1.396       .  A
C2157      H2163   1.081       .  S
O2158      C2900   1.319       .  A
O2158      C2159   1.329       .  A
C2159      C2160   1.389       .  A
C2160      C2899   1.360       .  A
C2160      H2164   1.082       .  S
C2165      C2170   1.381       .  A
C2165      C2166   1.401       .  A
C2165      O2171   1.317       .  A
C2166      C2167   1.401       .  A
C2166      H2177   1.082       .  S
C2167      C2176   1.358       .  A
C2167      C2168   1.378       .  A
C2168      C2169   1.406       .  A
C2168      O2174   1.321       .  A
C2169      C2170   1.405       .  A
C2169      H2178   1.082       .  S
C2170      C2173   1.364       .  A
O2171      C2172   1.328       .  A
C2172      C2173   1.391       .  A
C2173      H2179   1.082       .  S
O2174      C2175   1.335       .  A
C2175      C2176   1.396       .  A
C2176      H2180   1.081       .  S
C2181      C2186   1.381       .  A
C2181      C2182   1.405       .  A
C2181      O2187   1.321       .  A
C2182      C2183   1.405       .  A
C2182      H2193   1.082       .  S
C2183      C2192   1.362       .  A
C2183      C2184   1.379       .  A
C2184      C2185   1.402       .  A
C2184      O2190   1.318       .  A
C2185      C2186   1.402       .  A
O2187      C2188   1.331       .  A
C2189      H2195   1.082       .  S
O2190      C2191   1.332       .  A
C2191      C2192   1.398       .  A
C2192      H2196   1.081       .  S
C2197      C2202   1.380       .  A
C2197      C2198   1.403       .  A
C2197      O2203   1.318       .  A
C2198      C2199   1.402       .  A
C2198      H2209   1.082       .  S
C2199      C2208   1.361       .  A
C2199      C2200   1.378       .  A
C2200      C2201   1.408       .  A
C2200      O2206   1.322       .  A
C2201      C2202   1.407       .  A
C2201      H2210   1.082       .  S
C2202      C2205   1.367       .  A
O2203      C2204   1.330       .  A
C2204      C2205   1.393       .  A
C2205      H2211   1.082       .  S
O2206      C2207   1.336       .  A
C2207      C2208   1.397       .  A
C2208      H2212   1.081       .  S
C2213      C2218   1.378       .  A
C2213      C2214   1.403       .  A
C2213      O2219   1.318       .  A
C2214      C2215   1.402       .  A
C2214      H2225   1.082       .  S
C2215      C2224   1.361       .  A
C2215      C2216   1.381       .  A
C2216      C2217   1.402       .  A
C2216      O2222   1.316       .  A
C2217      C2218   1.401       .  A
C2217      H2226   1.082       .  S
C2218      C2221   1.359       .  A
O2219      C2220   1.332       .  A
C2220      C2221   1.397       .  A
C2221      H2227   1.081       .  S
O2222      C2223   1.329       .  A
C2223      C2224   1.390       .  A
C2224      H2228   1.082       .  S
C2229      C2234   1.379       .  A
C2229      O2235   1.316       .  A
C2230      C2231   1.401       .  A
C2230      H2241   1.082       .  S
C2231      C2240   1.360       .  A
C2232      C2233   1.402       .  A
C2232      O2238   1.317       .  A
C2233      C2234   1.401       .  A
C2233      H2242   1.082       .  S
C2234      C2237   1.360       .  A
O2235      C2236   1.333       .  A
C2236      C2237   1.394       .  A
C2237      H2243   1.081       .  S
C2239      C2240   1.389       .  A
C2240      H2244   1.082       .  S
C2245      C2246   1.410       .  A
C2245      C2250   1.404       .  A
C2245      C2984   1.482       .  S
C2246      C2247   1.405       .  A
C2246      H2251   1.081       .  S
C2247      C2248   1.402       .  A
C2247      C2400   1.476       .  S
C2248      C2249   1.401       .  A
C2248      H2252   1.084       .  S
C2249      C2250   1.399       .  A
C2249      C2281   1.470       .  S
C2250      H2253   1.084       .  S
C2254      C2255   1.405       .  A
C2254      C2259   1.408       .  A
C2254      C2968   1.485       .  S
C2255      C2256   1.401       .  A
C2255      H2260   1.080       .  S
C2256      C2257   1.402       .  A
C2256      C2331   1.476       .  S
C2257      C2258   1.403       .  A
C2257      H2261   1.083       .  S
C2258      C2259   1.406       .  A
C2258      C2378   1.479       .  S
C2259      H2262   1.083       .  S
C2263      C2264   1.407       .  A
C2263      C2268   1.409       .  A
C2263      C2955   1.495       .  S
C2264      C2265   1.410       .  A
C2264      H2269   1.082       .  S
C2265      C2266   1.406       .  A
C2265      C2370   1.485       .  S
C2266      C2267   1.406       .  A
C2266      H2270   1.084       .  S
C2267      C2268   1.408       .  A
C2267      C2301   1.486       .  S
C2268      H2271   1.079       .  S
C2272      C2273   1.407       .  A
C2272      C2277   1.407       .  A
C2272      C2939   1.487       .  S
C2273      C2274   1.404       .  A
C2273      H2278   1.081       .  S
C2274      C2275   1.406       .  A
C2274      C2385   1.478       .  S
C2275      C2276   1.406       .  A
C2275      H2279   1.084       .  S
C2276      C2277   1.405       .  A
C2277      H2280   1.083       .  S
N2282      N2299   1.322       .  A
N2282      N2304   1.319       .  A
N2282     Co2319   2.073       .  S
C2283      H2328   1.082       .  S
H2284      C2325   1.081       .  S
C2285      H2314   1.082       .  S
C2285      N2309   1.343       .  A
Co2286     N2304   2.086       .  S
Co2286     N2294   2.085       .  S
Co2286     N2326   2.084       .  S
Co2286     N2302   2.087       .  S
Co2286    Cl2330   2.466       .  S
N2287      N2294   1.320       .  A
N2287     Co2288   2.077       .  S
Co2288     N2291   2.086       .  S
Co2288     N2308   2.083       .  S
Co2288     N2295   2.082       .  S
Co2288    Cl2330   2.434       .  S
C2289      N2327   1.350       .  A
N2290      N2297   1.320       .  A
N2290      N2320   1.323       .  A
N2290     Co2323   2.083       .  S
N2291      N2309   1.320       .  A
N2292      C2321   1.352   1_565  A
N2292      N2302   1.326       .  A
H2293      C2318   1.082       .  S
N2294      N2315   1.326       .  A
N2295      N2313   1.320       .  A
C2296      C2324   1.462   1_545  S
N2297      C2312   1.341       .  A
N2297     Co2319   2.086       .  S
C2298      C2301   1.462       .  S
C2298      H2332   1.081       .  S
C2298      N2326   1.340       .  A
C2301      N2322   1.354       .  A
N2302      N2308   1.320       .  A
N2303      C2329   1.336       .  A
N2303      N2305   1.320       .  A
N2303     Co2319   2.076       .  S
N2304      C2318   1.342       .  A
N2305      N2333   1.327       .  A
N2305     Co2323   2.089       .  S
H2306      C2329   1.082       .  S
H2307      C2324   1.081       .  S
N2309     Co2323   2.092       .  S
N2310      N2322   1.328       .  A
N2310      N2326   1.320       .  A
N2310     Co2319   2.101       .  S
C2311      C2325   1.458       .  S
C2312      H2316   1.081       .  S
N2313      C2324   1.340       .  A
N2313     Co2323   2.080       .  S
C2317      C2329   1.459       .  S
C2317      C2338   1.476       .  S
C2317      N2333   1.351       .  A
Co2319    Cl2330   2.437       .  S
Co2323    Cl2330   2.466       .  S
C2334      C2335   1.411       .  A
C2334      C2339   1.414       .  A
C2334      C2923   1.491       .  S
C2335      C2336   1.406       .  A
C2335      H2340   1.083       .  S
C2336      C2337   1.397       .  A
C2336      C2420   1.476       .  S
C2337      C2338   1.397       .  A
C2337      H2341   1.083       .  S
C2338      C2339   1.403       .  A
C2339      H2342   1.080       .  S
C2343      C2344   1.410       .  A
C2343      C2348   1.410       .  A
C2343      C2904   1.486       .  S
C2344      C2345   1.401       .  A
C2345      C2346   1.397       .  A
C2346      C2347   1.399       .  A
C2346      H2350   1.082       .  S
C2347      C2348   1.406       .  A
C2347      C2410   1.476       .  S
C2348      H2351   1.083       .  S
C2352      C2353   1.406       .  A
C2352      C2357   1.410       .  A
C2352      C2891   1.486       .  S
C2353      C2354   1.401       .  A
C2353      H2358   1.084       .  S
C2354      C2355   1.401       .  A
C2354      C2390   1.472       .  S
C2355      C2356   1.402       .  A
C2355      H2359   1.084       .  S
C2356      C2357   1.405       .  A
C2357      H2360   1.081       .  S
C2361      C2362   1.408       .  A
C2361      C2366   1.407       .  A
C2361      C2875   1.487       .  S
C2362      C2363   1.408       .  A
C2362      H2367   1.083       .  S
C2363      C2364   1.402       .  A
C2363      C2406   1.480       .  S
C2364      C2365   1.402       .  A
C2364      H2368   1.083       .  S
C2365      C2366   1.402       .  A
C2366      H2369   1.080       .  S
C2370      C2407   1.460       .  S
C2370      N2388   1.355       .  A
N2371      N2388   1.328       .  A
N2371      N2393   1.321       .  A
N2371     Co2408   2.108       .  S
C2372      C2410   1.460       .  S
C2372      H2417   1.081       .  S
C2372      N2397   1.336       .  A
H2373      C2414   1.082       .  S
C2374      C2378   1.462       .  S
C2374      H2403   1.081       .  S
C2374      N2398   1.343       .  A
Co2375     N2393   2.081       .  S
Co2375     N2383   2.089       .  S
Co2375     N2415   2.085       .  S
Co2375     N2391   2.081       .  S
Co2375    Cl2419   2.470       .  S
N2376      C2414   1.339       .  A
N2376      N2383   1.320       .  A
N2376     Co2377   2.081       .  S
Co2377     N2380   2.091       .  S
Co2377     N2397   2.083       .  S
Co2377     N2384   2.085       .  S
Co2377    Cl2419   2.434       .  S
C2378      N2416   1.351       .  A
N2379      N2386   1.320       .  A
N2379      N2409   1.327       .  A
N2379     Co2412   2.085       .  S
N2380      N2398   1.320       .  A
N2380      N2416   1.324       .  A
N2381      C2410   1.350       .  A
N2381      N2391   1.326       .  A
H2382      C2407   1.081       .  S
N2383      N2404   1.326       .  A
N2384      N2402   1.319       .  A
N2384      N2389   1.325       .  A
C2385      C2413   1.463       .  S
C2385      N2389   1.350       .  A
N2386      C2401   1.337       .  A
N2386     Co2408   2.083       .  S
C2387      C2390   1.462       .  S
C2387      H2421   1.082       .  S
C2387      N2415   1.342       .  A
C2390      N2411   1.347       .  A
N2391      N2397   1.320       .  A
N2392      C2418   1.342       .  A
N2392      N2394   1.320       .  A
N2392     Co2408   2.097       .  S
N2393      C2407   1.340       .  A
N2394      N2422   1.325       .  A
N2394     Co2412   2.080       .  S
H2395      C2418   1.081       .  S
H2396      C2413   1.082       .  S
N2398     Co2412   2.084       .  S
N2399      N2411   1.323       .  A
N2399      N2415   1.320       .  A
N2399     Co2408   2.079       .  S
C2400      C2414   1.458       .  S
C2400      N2404   1.352       .  A
C2401      C2420   1.460       .  S
C2401      H2405   1.082       .  S
N2402      C2413   1.341       .  A
N2402     Co2412   2.086       .  S
C2406      C2418   1.464       .  S
C2406      N2422   1.350       .  A
Co2408    Cl2419   2.436       .  S
N2409      C2420   1.350       .  A
Co2412    Cl2419   2.469       .  S
N2423      C2428   1.354       .  A
N2423      C2427   1.353       .  A
N2423      H2455   1.033       .  S
N2424      C2431   1.351       .  A
N2424      C2432   1.353       .  A
N2425      C2430   1.353       .  A
N2425      C2429   1.354       .  A
N2425      H2456   1.029       .  S
N2426      C2433   1.349       .  A
N2426      C2434   1.350       .  A
C2427      C2435   1.388       .  A
C2427      C2443   1.418       .  A
C2428      C2444   1.417       .  A
C2428      C2436   1.388       .  A
C2429      C2437   1.388       .  A
C2429      C2446   1.420       .  A
C2430      C2445   1.419       .  A
C2430      C2438   1.387       .  A
C2431      C2443   1.415       .  A
C2431      C2439   1.387       .  A
C2432      C2446   1.417       .  A
C2432      C2440   1.386       .  A
C2433      C2441   1.386   1_565  A
C2433      C2444   1.411       .  A
C2434      C2442   1.386   1_565  A
C2434      C2445   1.412       .  A
C2435      C2436   1.373       .  A
C2435      H2447   1.082       .  S
C2436      H2448   1.082       .  S
C2437      C2438   1.372       .  A
C2437      H2449   1.082       .  S
C2438      H2450   1.082       .  S
C2439      C2440   1.376       .  A
C2439      H2451   1.082       .  S
C2440      H2452   1.082       .  S
C2441      C2442   1.374       .  A
C2443      C2856   1.478       .  S
C2444      C2843   1.476   1_565  S
C2445      C2907   1.476   1_565  S
C2446      C2952   1.483       .  S
N2457      C2462   1.356       .  A
N2457      C2461   1.356       .  A
N2457      H2489   1.036       .  S
N2458      C2465   1.349       .  A
N2458      C2466   1.350       .  A
N2459      C2464   1.355       .  A
N2459      C2463   1.355       .  A
N2459      H2490   1.030   1_556  S
N2460      C2467   1.350       .  A
N2460      C2468   1.351       .  A
C2461      C2469   1.388       .  A
C2461      C2477   1.419       .  A
C2462      C2478   1.419       .  A
C2462      C2470   1.387       .  A
C2463      C2471   1.388       .  A
C2463      C2480   1.422       .  A
C2464      C2479   1.424       .  A
C2464      C2472   1.390       .  A
C2465      C2477   1.412       .  A
C2465      C2473   1.386       .  A
C2466      C2480   1.413   1_554  A
C2466      C2474   1.387       .  A
C2467      C2478   1.414       .  A
C2468      C2479   1.416   1_554  A
C2469      C2470   1.372       .  A
C2469      H2481   1.082       .  S
C2470      H2482   1.082       .  S
C2471      C2472   1.369       .  A
C2471      H2483   1.082       .  S
C2472      H2484   1.081       .  S
C2473      C2474   1.374       .  A
C2473      H2485   1.082       .  S
C2474      H2486   1.082   1_554  S
C2475      C2476   1.376       .  A
C2475      H2487   1.082       .  S
C2476      H2488   1.082   1_554  S
C2477      C2920   1.479       .  S
C2480      C2808   1.478       .  S
N2491      C2496   1.351       .  A
N2491      C2495   1.353       .  A
N2491      H2523   1.034       .  S
N2492      C2499   1.350       .  A
N2492      C2500   1.350       .  A
N2493      C2498   1.353       .  A
N2493      C2497   1.352       .  A
N2493      H2524   1.033       .  S
N2494      C2501   1.350       .  A
N2494      C2502   1.351       .  A
C2495      C2503   1.388       .  A
C2495      C2511   1.416       .  A
C2496      C2512   1.415       .  A
C2496      C2504   1.388       .  A
C2497      C2505   1.389       .  A
C2497      C2514   1.416       .  A
C2498      C2513   1.415       .  A
C2498      C2506   1.387       .  A
C2499      C2511   1.412       .  A
C2499      C2507   1.386       .  A
C2500      C2514   1.411       .  A
C2500      C2508   1.386       .  A
C2501      C2512   1.411       .  A
C2502      C2513   1.411       .  A
C2503      C2504   1.374       .  A
C2503      H2515   1.082       .  S
C2504      H2516   1.082       .  S
C2505      C2506   1.372       .  A
C2505      H2517   1.082       .  S
C2506      H2518   1.082       .  S
C2507      C2508   1.375       .  A
C2507      H2519   1.082       .  S
C2508      H2520   1.082       .  S
C2509      C2510   1.375       .  A
C2509      H2521   1.082       .  S
C2510      H2522   1.082       .  S
C2511      C2888   1.477       .  S
C2512      C2987   1.473       .  S
C2513      C2795   1.478       .  S
C2514      C2776   1.474       .  S
N2525      C2530   1.357       .  A
N2525      C2529   1.356       .  A
N2525      H2557   1.036       .  S
N2526      C2533   1.349   1_554  A
N2526      C2534   1.350       .  A
N2527      C2532   1.353       .  A
N2527      C2531   1.352       .  A
N2527      H2558   1.033       .  S
N2528      C2535   1.349   1_564  A
N2528      C2536   1.351       .  A
C2529      C2537   1.386       .  A
C2529      C2545   1.418       .  A
C2530      C2546   1.421       .  A
C2530      C2538   1.388       .  A
C2531      C2539   1.389       .  A
C2531      C2548   1.417       .  A
C2532      C2547   1.416       .  A
C2532      C2540   1.387       .  A
C2533      C2545   1.410       .  A
C2533      C2541   1.387   1_556  A
C2534      C2548   1.411       .  A
C2534      C2542   1.386       .  A
C2535      C2546   1.412   1_545  A
C2536      C2547   1.412       .  A
C2537      C2538   1.374       .  A
C2537      H2549   1.082       .  S
C2538      H2550   1.082       .  S
C2539      C2540   1.371       .  A
C2539      H2551   1.081       .  S
C2540      H2552   1.082       .  S
C2541      C2542   1.375       .  A
C2541      H2553   1.082   1_554  S
C2542      H2554   1.082       .  S
C2543      C2544   1.376       .  A
C2543      H2555   1.082   1_554  S
C2544      H2556   1.082       .  S
C2545      C2760   1.479       .  S
C2546      C2744   1.481   1_565  S
C2547      C2872   1.479   1_565  S
C2548      C2971   1.474       .  S
C2559      C2560   1.410       .  A
C2559      C2564   1.408       .  A
C2559      C2763   1.488       .  S
C2560      C2561   1.406       .  A
C2560      H2565   1.081       .  S
C2561      C2562   1.402       .  A
C2561      C2613   1.477       .  S
C2562      C2563   1.402       .  A
C2562      H2566   1.084       .  S
C2563      C2564   1.403       .  A
C2564      H2567   1.084       .  S
C2568      C2569   1.412       .  A
C2568      C2573   1.406       .  A
C2568      C2824   1.484       .  S
C2569      C2570   1.406       .  A
C2569      H2574   1.081       .  S
C2570      C2571   1.399       .  A
C2570      C2724   1.476       .  S
C2571      C2572   1.397       .  A
C2571      H2575   1.081       .  S
C2572      C2573   1.400       .  A
C2572      C2643   1.472       .  S
C2573      H2576   1.084       .  S
C2577      C2578   1.413       .  A
C2577      C2582   1.411       .  A
C2577      C2747   1.495       .  S
C2578      C2579   1.403       .  A
C2578      H2583   1.080       .  S
C2579      C2580   1.400       .  A
C2579      C2653   1.481       .  S
C2580      C2581   1.402       .  A
C2580      H2584   1.084       .  S
C2581      C2582   1.408       .  A
C2581      C2704   1.478       .  S
C2582      H2585   1.083       .  S
C2586      C2587   1.403       .  A
C2586      C2591   1.403       .  A
C2586      C2811   1.485       .  S
C2587      C2588   1.403       .  A
C2587      H2592   1.079       .  S
C2588      C2589   1.406       .  A
C2588      C2633   1.478       .  S
C2589      C2590   1.407       .  A
C2589      H2593   1.084       .  S
C2590      C2591   1.405       .  A
C2590      C2684   1.479       .  S
C2591      H2594   1.082       .  S
C2595      C2596   1.405       .  A
C2595      C2600   1.408       .  A
C2595      C2779   1.483       .  S
C2596      C2597   1.403       .  A
C2596      H2601   1.083       .  S
C2597      C2598   1.401       .  A
C2597      C2628   1.471       .  S
C2598      C2599   1.400       .  A
C2598      H2602   1.083       .  S
C2599      C2600   1.402       .  A
C2599      C2720   1.476       .  S
C2600      H2603   1.080       .  S
C2604      C2605   1.405       .  A
C2604      C2609   1.408       .  A
C2604      C2840   1.485       .  S
C2605      C2606   1.403       .  A
C2605      H2610   1.083       .  S
C2606      C2607   1.405       .  A
C2606      C2621   1.477       .  S
C2607      C2608   1.405       .  A
C2607      H2611   1.084       .  S
C2608      C2609   1.404       .  A
C2608      C2699   1.479       .  S
C2609      H2612   1.081       .  S
C2613      C2650   1.462       .  S
C2613      N2631   1.350       .  A
N2614      N2631   1.324       .  A
N2614      N2636   1.320       .  A
N2614     Co2651   2.087       .  S
C2615      C2653   1.461       .  S
C2615      H2660   1.082       .  S
C2615      N2640   1.340       .  A
H2616      C2657   1.081       .  S
C2617      C2621   1.463       .  S
C2617      H2646   1.082       .  S
C2617      N2641   1.342       .  A
Co2618     N2636   2.088       .  S
Co2618     N2626   2.077       .  S
Co2618     N2658   2.076       .  S
Co2618     N2634   2.090       .  S
Co2618    Cl2662   2.466       .  S
N2619      C2657   1.335       .  A
N2619      N2626   1.319       .  A
N2619     Co2620   2.074       .  S
Co2620     N2623   2.089       .  S
Co2620     N2640   2.087       .  S
Co2620     N2627   2.077       .  S
Co2620    Cl2662   2.430       .  S
C2621      N2659   1.349       .  A
N2622      N2629   1.320       .  A
N2622      N2652   1.326       .  A
N2622     Co2655   2.087       .  S
N2623      N2641   1.321       .  A
N2623      N2659   1.325       .  A
N2624      C2653   1.352       .  A
N2624      N2634   1.327       .  A
H2625      C2650   1.082       .  S
N2626      N2647   1.324       .  A
N2627      N2645   1.320       .  A
N2627      N2632   1.321       .  A
C2628      C2656   1.461       .  S
C2628      N2632   1.348       .  A
N2629      C2644   1.338       .  A
N2629     Co2651   2.083       .  S
C2630      C2633   1.461       .  S
C2630      H2664   1.081       .  S
C2630      N2658   1.337       .  A
C2633      N2654   1.351       .  A
N2634      N2640   1.320       .  A
N2635      C2661   1.336       .  A
N2635      N2637   1.320       .  A
N2635     Co2651   2.079       .  S
N2636      C2650   1.343       .  A
N2637      N2665   1.327       .  A
N2637     Co2655   2.086       .  S
H2638      C2661   1.082       .  S
H2639      C2656   1.081       .  S
N2641     Co2655   2.087       .  S
N2642      N2654   1.326       .  A
N2642      N2658   1.319       .  A
N2642     Co2651   2.088       .  S
C2643      C2657   1.458       .  S
C2643      N2647   1.350       .  A
C2644      C2663   1.460       .  S
C2644      H2648   1.081       .  S
N2645      C2656   1.341       .  A
N2645     Co2655   2.080       .  S
C2649      C2661   1.457       .  S
C2649      C2679   1.473       .  S
C2649      N2665   1.351       .  A
Co2651    Cl2662   2.433       .  S
N2652      C2663   1.352       .  A
Co2655    Cl2662   2.471       .  S
C2663      C2670   1.480       .  S
C2666      C2667   1.407       .  A
C2666      C2671   1.407       .  A
C2666      C2792   1.486       .  S
C2667      C2668   1.401       .  A
C2667      H2672   1.079       .  S
C2668      C2669   1.401       .  A
C2668      C2692   1.478       .  S
C2669      C2670   1.405       .  A
C2669      H2673   1.082       .  S
C2670      C2671   1.407       .  A
C2671      H2674   1.083       .  S
C2675      C2676   1.406       .  A
C2675      C2680   1.410       .  A
C2675      C2859   1.482       .  S
C2676      C2677   1.401       .  A
C2676      H2681   1.084       .  S
C2677      C2678   1.398       .  A
C2677      C2734   1.472       .  S
C2678      C2679   1.399       .  A
C2678      H2682   1.083       .  S
C2679      C2680   1.404       .  A
C2680      H2683   1.082       .  S
C2684      C2721   1.462       .  S
C2684      N2702   1.351       .  A
N2685      N2702   1.326       .  A
N2685      N2707   1.320       .  A
N2685     Co2722   2.090       .  S
C2686      C2724   1.460       .  S
C2686      H2731   1.081       .  S
H2687      C2728   1.082       .  S
C2688      H2717   1.081       .  S
C2688      N2712   1.340       .  A
Co2689     N2707   2.082       .  S
Co2689     N2697   2.091       .  S
Co2689     N2729   2.089       .  S
Co2689     N2705   2.084       .  S
Co2689    Cl2733   2.470       .  S
N2690      N2697   1.320       .  A
Co2691     N2711   2.081       .  S
Co2691     N2698   2.090       .  S
C2692      N2730   1.350       .  A
N2693      N2700   1.320       .  A
N2693      N2723   1.325       .  A
N2693     Co2726   2.082       .  S
N2694      N2712   1.319       .  A
H2696      C2721   1.081       .  S
N2697      N2718   1.327       .  A
C2699      N2703   1.350       .  A
N2700      C2715   1.337       .  A
N2700     Co2722   2.080       .  S
C2701      C2704   1.462       .  S
C2701      H2735   1.081       .  S
C2704      N2725   1.350       .  A
N2706      N2708   1.321       .  A
N2706     Co2722   2.085       .  S
N2707      C2721   1.339       .  A
N2708     Co2726   2.084       .  S
H2709      C2732   1.081       .  S
H2710      C2727   1.082       .  S
N2712     Co2726   2.081       .  S
N2713      N2729   1.320       .  A
N2713     Co2722   2.087       .  S
C2714      N2718   1.352       .  A
C2715      C2734   1.458       .  S
C2715      H2719   1.082       .  S
N2716     Co2726   2.087       .  S
C2720      C2732   1.460       .  S
C2720      N2736   1.351       .  A
Co2722    Cl2733   2.435       .  S
N2723      C2734   1.350       .  A
Co2726    Cl2733   2.468       .  S
C2737      C2742   1.381       .  A
C2737      C2738   1.402       .  A
C2737      O2743   1.320       .  A
C2738      C2739   1.403       .  A
C2738      H2749   1.082       .  S
C2739      C2748   1.358       .  A
C2739      C2740   1.378       .  A
C2740      C2741   1.406       .  A
C2740      O2746   1.323       .  A
C2741      C2742   1.406       .  A
C2744      C2745   1.391   1_545  A
C2745      H2751   1.082       .  S
O2746      C2747   1.336       .  A
C2747      C2748   1.397       .  A
C2748      H2752   1.081       .  S
C2753      C2758   1.381       .  A
C2753      C2754   1.405       .  A
C2753      O2759   1.319       .  A
C2754      C2755   1.404       .  A
C2754      H2765   1.082       .  S
C2755      C2764   1.364       .  A
C2755      C2756   1.379       .  A
C2756      C2757   1.403       .  A
C2756      O2762   1.317       .  A
C2757      C2758   1.401       .  A
C2757      H2766   1.082       .  S
C2758      C2761   1.361       .  A
O2759      C2760   1.330       .  A
C2760      C2761   1.389       .  A
C2761      H2767   1.082       .  S
O2762      C2763   1.332       .  A
C2763      C2764   1.397       .  A
C2764      H2768   1.081       .  S
C2769      C2774   1.382       .  A
C2769      C2770   1.400       .  A
C2769      O2775   1.317       .  A
C2770      C2771   1.400       .  A
C2770      H2781   1.082       .  S
C2771      C2780   1.357       .  A
C2771      C2772   1.379       .  A
C2772      C2773   1.403       .  A
C2772      O2778   1.318       .  A
C2773      C2774   1.402       .  A
C2773      H2782   1.082       .  S
C2774      C2777   1.360       .  A
O2775      C2776   1.329       .  A
C2776      C2777   1.389       .  A
C2777      H2783   1.082       .  S
O2778      C2779   1.333       .  A
C2779      C2780   1.394       .  A
C2780      H2784   1.081       .  S
C2785      C2790   1.378       .  A
C2785      C2786   1.406       .  A
C2785      O2791   1.321       .  A
C2786      C2787   1.406       .  A
C2786      H2797   1.082       .  S
C2787      C2796   1.365       .  A
C2787      C2788   1.381       .  A
C2788      C2789   1.399   1_655  A
C2789      C2790   1.399   1_455  A
C2790      C2793   1.356       .  A
O2791      C2792   1.334       .  A
C2792      C2793   1.395       .  A
C2793      H2799   1.081   1_655  S
O2794      C2795   1.328       .  A
C2796      H2800   1.082       .  S
C2801      C2806   1.382       .  A
C2801      C2802   1.402       .  A
C2801      O2807   1.317       .  A
C2802      C2803   1.401       .  A
C2802      H2813   1.082       .  S
C2803      C2812   1.359       .  A
C2803      C2804   1.378       .  A
C2804      C2805   1.402       .  A
C2804      O2810   1.317       .  A
C2805      C2806   1.402       .  A
C2805      H2814   1.082       .  S
C2806      C2809   1.361       .  A
O2807      C2808   1.329       .  A
C2808      C2809   1.390       .  A
C2809      H2815   1.082       .  S
O2810      C2811   1.332       .  A
C2811      C2812   1.396       .  A
C2812      H2816   1.081       .  S
C2817      C2822   1.378       .  A
C2817      C2818   1.402       .  A
C2817      O2823   1.317       .  A
C2818      C2819   1.402       .  A
C2818      H2829   1.082       .  S
C2819      C2828   1.361       .  A
C2819      C2820   1.381       .  A
C2820      C2821   1.404       .  A
C2821      C2822   1.403       .  A
C2822      C2825   1.362       .  A
O2823      C2824   1.332       .  A
C2824      C2825   1.395       .  A
C2825      H2831   1.081       .  S
C2827      C2828   1.391       .  A
C2828      H2832   1.082       .  S
C2833      C2838   1.379       .  A
C2833      C2834   1.403       .  A
C2833      O2839   1.318       .  A
C2834      C2835   1.402       .  A
C2834      H2845   1.082       .  S
C2835      C2844   1.361       .  A
C2836      C2837   1.401       .  A
C2836      O2842   1.317       .  A
C2837      H2846   1.082       .  S
C2838      C2841   1.359       .  A
O2839      C2840   1.333       .  A
C2840      C2841   1.395       .  A
C2841      H2847   1.081       .  S
O2842      C2843   1.328       .  A
C2844      H2848   1.082       .  S
C2849      C2854   1.381       .  A
C2849      C2850   1.403       .  A
C2849      O2855   1.319       .  A
C2850      C2851   1.402       .  A
C2850      H2861   1.082       .  S
C2851      C2860   1.362       .  A
C2851      C2852   1.379       .  A
C2852      C2853   1.402       .  A
C2852      O2858   1.316       .  A
C2853      C2854   1.401       .  A
C2853      H2862   1.082       .  S
C2854      C2857   1.359       .  A
O2855      C2856   1.329       .  A
C2856      C2857   1.390       .  A
C2857      H2863   1.083       .  S
O2858      C2859   1.332       .  A
C2859      C2860   1.395       .  A
C2860      H2864   1.082       .  S
C2865      C2870   1.381       .  A
C2865      C2866   1.402       .  A
C2865      O2871   1.319       .  A
C2866      C2867   1.402       .  A
C2866      H2877   1.082       .  S
C2867      C2876   1.359       .  A
C2867      C2868   1.378       .  A
C2868      C2869   1.404       .  A
C2868      O2874   1.320       .  A
C2869      C2870   1.404       .  A
C2869      H2878   1.082       .  S
C2872      C2873   1.391       .  A
C2873      H2879   1.082       .  S
O2874      C2875   1.333       .  A
C2875      C2876   1.396       .  A
C2876      H2880   1.081       .  S
C2881      C2886   1.381       .  A
C2881      C2882   1.402       .  A
C2881      O2887   1.318       .  A
C2882      C2883   1.402       .  A
C2882      H2893   1.082       .  S
C2883      C2892   1.361       .  A
C2883      C2884   1.378       .  A
C2884      C2885   1.403       .  A
C2884      O2890   1.317       .  A
C2885      C2886   1.402       .  A
C2885      H2894   1.082       .  S
C2886      C2889   1.361       .  A
O2887      C2888   1.329       .  A
C2888      C2889   1.389       .  A
C2889      H2895   1.082       .  S
O2890      C2891   1.333       .  A
C2891      C2892   1.396       .  A
C2892      H2896   1.081       .  S
C2897      C2902   1.379       .  A
C2897      C2898   1.403       .  A
C2897      O2903   1.319       .  A
C2898      C2899   1.403       .  A
C2898      H2909   1.082       .  S
C2899      C2900   1.382       .  A
C2900      C2901   1.402       .  A
C2901      C2902   1.402       .  A
C2901      H2910   1.082       .  S
C2902      C2905   1.359       .  A
O2903      C2904   1.333       .  A
C2904      C2905   1.396       .  A
C2905      H2911   1.081       .  S
O2906      C2907   1.329   1_565  A
C2907      C2908   1.389       .  A
C2908      H2912   1.082       .  S
C2913      C2918   1.381       .  A
C2913      C2914   1.401       .  A
C2913      O2919   1.317       .  A
C2914      C2915   1.401       .  A
C2914      H2925   1.082       .  S
C2915      C2924   1.359       .  A
C2915      C2916   1.378       .  A
C2916      C2917   1.406       .  A
C2916      O2922   1.321       .  A
C2917      C2918   1.405       .  A
C2917      H2926   1.082       .  S
C2918      C2921   1.364       .  A
O2919      C2920   1.329       .  A
C2920      C2921   1.391       .  A
C2921      H2927   1.082       .  S
O2922      C2923   1.335       .  A
C2923      C2924   1.396       .  A
C2924      H2928   1.081       .  S
C2929      C2934   1.381       .  A
C2929      C2930   1.405       .  A
C2929      O2935   1.321       .  A
C2930      C2931   1.405       .  A
C2930      H2941   1.082       .  S
C2931      C2940   1.363       .  A
C2931      C2932   1.379       .  A
C2932      C2933   1.402       .  A
C2932      O2938   1.318       .  A
C2933      C2934   1.402       .  A
O2935      C2936   1.331       .  A
C2937      H2943   1.082       .  S
O2938      C2939   1.332       .  A
C2939      C2940   1.398       .  A
C2940      H2944   1.081       .  S
C2945      C2950   1.380       .  A
C2945      C2946   1.403       .  A
C2945      O2951   1.318       .  A
C2946      C2947   1.402       .  A
C2946      H2957   1.082       .  S
C2947      C2956   1.361       .  A
C2947      C2948   1.378       .  A
C2948      C2949   1.408       .  A
C2948      O2954   1.322       .  A
C2949      C2950   1.407       .  A
C2949      H2958   1.082       .  S
C2950      C2953   1.367       .  A
O2951      C2952   1.330       .  A
C2952      C2953   1.393       .  A
C2953      H2959   1.082       .  S
O2954      C2955   1.336       .  A
C2955      C2956   1.397       .  A
C2956      H2960   1.081       .  S
C2961      C2966   1.378       .  A
C2961      C2962   1.403       .  A
C2961      O2967   1.318       .  A
C2962      C2963   1.402       .  A
C2962      H2973   1.082       .  S
C2963      C2972   1.361       .  A
C2963      C2964   1.381       .  A
C2964      C2965   1.401       .  A
C2964      O2970   1.316       .  A
C2965      C2966   1.401       .  A
C2965      H2974   1.082       .  S
C2966      C2969   1.358       .  A
O2967      C2968   1.332       .  A
C2968      C2969   1.397       .  A
C2969      H2975   1.081       .  S
O2970      C2971   1.329       .  A
C2971      C2972   1.390       .  A
C2972      H2976   1.082       .  S
C2977      C2982   1.379       .  A
C2977      O2983   1.317       .  A
C2978      C2979   1.402       .  A
C2978      H2989   1.082       .  S
C2979      C2988   1.360       .  A
C2980      C2981   1.401       .  A
C2980      O2986   1.317       .  A
C2981      C2982   1.401       .  A
C2981      H2990   1.082       .  S
C2982      C2985   1.360       .  A
O2983      C2984   1.333       .  A
C2984      C2985   1.394       .  A
C2985      H2991   1.081       .  S
C2987      C2988   1.389       .  A
C2988      H2992   1.082       .  S
