geometry optimzed in LAMMPS
_audit_creation_date              2020-12-01 
_audit_creation_method            'lammps2cif' 
_symmetry_space_group_name_H-M    'P1' 
_symmetry_Int_Tables_number       1 
_symmetry_cell_setting            triclinic 
loop_ 
_symmetry_equiv_pos_as_xyz 
  x,y,z 
_cell_length_a                    37.6168659 
_cell_length_b                    37.50062525698542 
_cell_length_c                    60.27879683509404 
_cell_angle_alpha                 90.05135237011305 
_cell_angle_beta                  89.82742756590956 
_cell_angle_gamma                 89.9988941029424 
loop_ 
_atom_site_label 
_atom_site_type_symbol 
_atom_site_fract_x 
_atom_site_fract_y 
_atom_site_fract_z 
_atom_site_charge 
C1          C  0.43787269  0.31366356  0.35819882     0.80400
N2          N  0.41052384  0.29662185  0.34804231    -0.77900
C3          C  0.39826403  0.30805033  0.32815392     0.82900
N4          N  0.41370329  0.33647719  0.31816921    -0.77800
C5          C  0.44140337  0.35347274  0.32792667     0.83000
N6          N  0.45338097  0.34220987  0.34806557    -0.79500
C7          C  0.39831542  0.35453127  0.17574417     0.80400
N8          N  0.37984179  0.32933681  0.18723262    -0.77900
C9          C  0.38789878  0.32234774  0.20872387     0.82900
N10         N  0.41373067  0.34138025  0.21893324    -0.77800
C11         C  0.43312884  0.36569997  0.20750266     0.83000
N12         N  0.42524326  0.37246613  0.18590995    -0.79500
C13         C  0.17208389  0.35384594  0.36409999     0.80400
N14         N  0.14634594  0.37281590  0.35351193    -0.77900
C15         C  0.13975064  0.36697738  0.33163266     0.82900
N16         N  0.15921168  0.34250250  0.32031904    -0.77800
C17         C  0.18372331  0.32240945  0.33099599     0.83000
N18         N  0.19045734  0.32845399  0.35276974    -0.79500
C19         C  0.44509545  0.12669618  0.18623509     0.80400
N20         N  0.41526385  0.14145246  0.19495863    -0.77900
C21         C  0.40123358  0.12860559  0.21414771     0.82900
N22         N  0.41688227  0.10057829  0.22455418    -0.77800
C23         C  0.44682960  0.08589263  0.21584432     0.83000
N24         N  0.46078493  0.09908299  0.19680906    -0.79500
C25         C  0.45805459  0.38377821  0.31648053     0.42700
N26         N  0.99452604  0.42709298  0.30812264     0.01600
C27         C  0.99362076  0.03496276  0.21631555    -0.06300
H28         H  0.00536366  0.40422339  0.19547710     0.07100
C29         C  0.12397349  0.40381806  0.24422005    -0.06700
Co30       Co  0.46946728  0.46737102  0.26823465     0.74200
N31         N  0.99875441  0.43122056  0.22697826    -0.25800
Co32       Co  0.03873179  0.46966257  0.22897327     0.74100
C33         C  0.11195814  0.38647267  0.22399510     0.42800
N34         N  0.09871527  0.43012090  0.29632080     0.01200
N35         N  0.07812704  0.43086092  0.23065420     0.01300
N36         N  0.45152291  0.03666387  0.24375335    -0.46700
H37         H  0.42377946  0.39419680  0.28554045     0.07000
N38         N  0.47257895  0.42912967  0.24321292     0.01600
N39         N  0.07715327  0.00910842  0.23174406     0.01300
C40         C  0.11275415  0.05187610  0.22380633     0.42900
N41         N  0.07352971  0.42992087  0.31158836    -0.25300
C42         C  0.44606033  0.03312765  0.29889961    -0.06200
N43         N  0.98967080  0.40057524  0.32227154    -0.46400
N44         N  0.08449250  0.03324662  0.21632879    -0.46600
C45         C  0.45498297  0.04825585  0.32031694     0.42700
N46         N  0.47403626  0.00984194  0.24659518     0.01600
N47         N  0.07050138  0.00784553  0.31270984    -0.25300
N48         N  0.46898326  0.42771069  0.29275090    -0.25800
N49         N  0.09609064  0.00900484  0.29767256     0.01200
H50         H  0.05842076  0.04047487  0.34131358     0.07100
H51         H  0.14611612  0.04207237  0.25509583     0.07100
N52         N  0.99826415  0.00758013  0.23014198    -0.25900
N53         N  0.10140904  0.43103178  0.24703749    -0.25500
N54         N  0.99117587  0.00534666  0.31108799     0.01600
C55         C  0.45750208  0.38889546  0.21977955     0.43000
C56         C  0.08188536  0.40566267  0.32711304    -0.06700
N57         N  0.09989049  0.00984773  0.24836071    -0.25500
H58         H  0.14607316  0.39725144  0.25489230     0.07100
N59         N  0.44809574  0.40477861  0.23897231    -0.46700
H60         H  0.06723214  0.40068890  0.34224179     0.07100
C61         C  0.10661566  0.05318696  0.31905720     0.42800
C62         C  0.44629714  0.40058524  0.29591712    -0.06200
Co63       Co  0.03235603  0.46709557  0.31081758     0.73800
N64         N  0.12429551  0.40683200  0.30044035    -0.46400
C65         C  0.46395696  0.05521080  0.22619018     0.43100
N66         N  0.98250807  0.02883271  0.32669475    -0.46400
Co67       Co  0.10005963  0.46947418  0.27198814     0.73900
C68         C  0.12314529  0.03633891  0.24495196    -0.06700
C69         C  0.99077816  0.40781041  0.21078294    -0.06300
N70         N  0.47004998  0.00744088  0.29565349    -0.25800
N71         N  0.08356181  0.40457646  0.21636264    -0.46600
H72         H  0.01064240  0.04175644  0.20246653     0.07100
C73         C  0.07500736  0.03477513  0.32707063    -0.06700
Cl74       Cl  0.03554117  0.46832779  0.26987670    -0.49700
C75         C  0.11529377  0.39012403  0.31943391     0.42800
H76         H  0.42344513  0.03854188  0.28837576     0.07000
N77         N  0.11833844  0.03583522  0.30086076    -0.46400
C78         C  0.13141373  0.31578691  0.18304336     0.80400
N79         N  0.11548156  0.34363730  0.19350781    -0.77900
C80         C  0.12836687  0.35592121  0.21302441     0.82900
N81         N  0.15707281  0.34015873  0.22224183    -0.77800
C82         C  0.17305484  0.31217839  0.21209298     0.83000
N83         N  0.16036912  0.30001373  0.19236945    -0.79500
C84         C  0.39613670  0.08118287  0.36505818     0.80400
N85         N  0.42362830  0.06433481  0.35468363    -0.77900
C86         C  0.43078719  0.07116429  0.33299777     0.82900
N87         N  0.41016488  0.09453459  0.32169386    -0.77800
C88         C  0.38361395  0.11247275  0.33200749     0.83000
N89         N  0.37619292  0.10532896  0.35363262    -0.79500
C90         C  0.12925076  0.12711770  0.35709949     0.80400
N91         N  0.15640942  0.14275516  0.34582330    -0.77900
C92         C  0.16746075  0.12926978  0.32607458     0.82900
N93         N  0.15118060  0.10015335  0.31751779    -0.77800
C94         C  0.12380606  0.08460525  0.32853715     0.83000
N95         N  0.11295526  0.09797145  0.34838161    -0.79500
C96         C  0.16409637  0.08582338  0.17595341     0.80400
N97         N  0.13929929  0.06808716  0.18815865    -0.77900
C98         C  0.13534924  0.07490324  0.21011683     0.82900
N99         N  0.15668944  0.09923594  0.21999907    -0.77800
C100        C  0.18048919  0.11820216  0.20786842     0.83000
N101        N  0.18456530  0.11116487  0.18587218    -0.79500
C102        C  0.36521690  0.29883187  0.22199547     0.42700
N103        N  0.32428390  0.26127015  0.23004098     0.01600
C104        C  0.22181926  0.26448122  0.32624838    -0.06300
H105        H  0.35557984  0.24138712  0.33957170     0.07100
C106        C  0.34556218  0.12586153  0.29705246    -0.06700
Co107      Co  0.28574346  0.28288539  0.27127947     0.74200
N108        N  0.32332898  0.25353152  0.31099566    -0.25800
Co109      Co  0.28355112  0.21517215  0.31037405     0.74100
C110        C  0.35999893  0.13508600  0.31869746     0.42800
N111        N  0.32377960  0.15577253  0.24358978     0.01200
N112        N  0.32074494  0.17381285  0.30969460     0.01300
N113        N  0.22289851  0.30678316  0.29953354    -0.46700
H114        H  0.35488044  0.33136050  0.25365237     0.07000
N115        N  0.32431442  0.27941526  0.29614260     0.01600
N116        N  0.24358484  0.17721157  0.30811780     0.01300
C117        C  0.19786346  0.14507108  0.31452248     0.42900
N118        N  0.32415353  0.18168780  0.22873669    -0.25300
C119        C  0.22076492  0.30744041  0.24319173    -0.06200
N120        N  0.34760582  0.26991702  0.21438191    -0.46400
N121        N  0.21677692  0.17298787  0.32213800    -0.46600
C122        C  0.20378369  0.29563718  0.22277020     0.42700
N123        N  0.24656211  0.28142704  0.29560403     0.01600
N124        N  0.24729912  0.18124762  0.22724050    -0.25300
N125        N  0.32461476  0.28381833  0.24684556    -0.25800
N126        N  0.24600682  0.15622466  0.24259271     0.01200
H127        H  0.21859905  0.18876652  0.19656169     0.07100
H128        H  0.20861767  0.10963691  0.28399666     0.07100
N129        N  0.24643657  0.25632844  0.31091026    -0.25900
N130        N  0.32114260  0.15100577  0.29301471    -0.25500
N131        N  0.24709615  0.26081266  0.22994465     0.01600
C132        C  0.36815148  0.29004748  0.31766567     0.43000
C133        C  0.35189630  0.17710619  0.21513137    -0.06700
N134        N  0.24359084  0.15354212  0.29186631    -0.25500
H135        H  0.35048212  0.10252349  0.28694667     0.07100
N136        N  0.35082460  0.30199443  0.29956367    -0.46700
H137        H  0.35894537  0.19407334  0.20132267     0.07100
C138        C  0.20556626  0.14138837  0.21947432     0.42800
C139        C  0.34999367  0.30818353  0.24341055    -0.06200
Co140      Co  0.28569042  0.22124993  0.22849993     0.73800
N141        N  0.35053576  0.13314067  0.24095503    -0.46400
C142        C  0.20595140  0.29761905  0.31840270     0.43100
N143        N  0.22142058  0.26665427  0.21537501    -0.46400
Co144      Co  0.28367291  0.15339302  0.26770075     0.73900
C145        C  0.21548231  0.13194302  0.29451940    -0.06700
C146        C  0.35002436  0.25805349  0.32537457    -0.06300
N147        N  0.24734164  0.28429680  0.24630563    -0.25800
N148        N  0.34307607  0.16478734  0.32576328    -0.46600
H149        H  0.21671951  0.24983009  0.34134831     0.07100
C150        C  0.22289726  0.17387077  0.21164253    -0.06700
Cl151      Cl  0.28470942  0.21816719  0.26946026    -0.49700
C152        C  0.36922840  0.14510966  0.22331902     0.42800
H153        H  0.21451854  0.32997471  0.25371120     0.07000
N154        N  0.22144591  0.13187654  0.23855898    -0.46400
C155        C  0.28414795  0.49040010  0.49910948     0.02500
C156        C  0.25371097  0.46831236  0.50002383     0.02500
C157        C  0.23993875  0.45789049  0.52069353    -0.18000
C158        C  0.25684299  0.46767969  0.54047268     0.02500
C159        C  0.28774186  0.48907138  0.53952686     0.02500
C160        C  0.30108334  0.50018441  0.51893121    -0.18000
H161        H  0.33028383  0.00164889  0.51894539     0.04500
H162        H  0.21691668  0.44047152  0.52134713     0.04500
C163        C  0.02150858  0.20649372  0.03923901     0.02500
C164        C  0.05181967  0.22871059  0.03876890     0.02500
C165        C  0.06593806  0.23944416  0.01834337    -0.18000
C166        C  0.05031632  0.22852287  0.99834238     0.02500
C167        C  0.02090558  0.20502076  0.99870879     0.02500
C168        C  0.50616916  0.19521051  0.01935629    -0.18000
H169        H  0.48324925  0.17767092  0.01927574     0.04500
H170        H  0.08831718  0.25768129  0.01802526     0.04500
C171        C  0.04822438  0.20621293  0.50283943     0.02500
C172        C  0.03058928  0.23953921  0.50239099     0.02500
C173        C  0.02231255  0.25659522  0.52249064    -0.18000
C174        C  0.02995576  0.24031853  0.54294267     0.02500
C175        C  0.04676735  0.20654204  0.54327696     0.02500
C176        C  0.05553458  0.18984697  0.52317795    -0.18000
H177        H  0.06945065  0.16452451  0.52335787     0.04500
H178        H  0.50259589  0.27986227  0.52326623     0.04500
C179        C  0.28324041  0.44685522  0.04280313     0.02500
C180        C  0.25895461  0.47549006  0.04377713     0.02500
C181        C  0.24631738  0.49055906  0.02407701    -0.18000
C182        C  0.25708790  0.47726062  0.00345205     0.02500
C183        C  0.28068605  0.44800354  0.00238443     0.02500
C184        C  0.29355987  0.43310190  0.02210798    -0.18000
H185        H  0.31207064  0.41093890  0.02135456     0.04500
H186        H  0.24071172  0.01609177  0.02280580     0.04500
C187        C  0.37245624  0.37206732  0.85791166     0.80400
N188        N  0.40053676  0.38853325  0.84806009    -0.77900
C189        C  0.41445041  0.37571778  0.82884163     0.82900
N190        N  0.39987545  0.34643925  0.81925848    -0.77800
C191        C  0.37155272  0.32997269  0.82882650     0.83000
N192        N  0.35801191  0.34267267  0.84824332    -0.79500
C193        C  0.41750190  0.10046153  0.86579248     0.80400
N194        N  0.39033025  0.11781412  0.85548837    -0.77900
C195        C  0.38354139  0.11154355  0.83369320     0.82900
N196        N  0.40414661  0.08830680  0.82223630    -0.77800
C197        C  0.43040279  0.07003019  0.83240600     0.83000
N198        N  0.43751414  0.07652791  0.85414071    -0.79500
C199        C  0.18170018  0.05722656  0.85855315     0.80400
N200        N  0.19806395  0.08658883  0.85006766    -0.77900
C201        C  0.18707427  0.10073110  0.83048069     0.82900
N202        N  0.15935567  0.08564598  0.81953439    -0.77800
C203        C  0.14295433  0.05634083  0.82793466     0.83000
N204        N  0.15430874  0.04213837  0.84734661    -0.79500
C205        C  0.15065924  0.33513819  0.86520505     0.80400
N206        N  0.17583626  0.31644720  0.85399227    -0.77900
C207        C  0.18034468  0.32110719  0.83188161     0.81300
N208        N  0.15936255  0.34454862  0.82083195    -0.77800
C209        C  0.13529957  0.36469751  0.83209568     0.83000
N210        N  0.13055380  0.35951759  0.85421426    -0.79500
C211        C  0.14578648  0.10521748  0.67903684     0.80400
N212        N  0.17166522  0.12143895  0.69104529    -0.77900
C213        C  0.17805217  0.11141243  0.71224792     0.82900
N214        N  0.15779168  0.08574909  0.72173255    -0.77800
C215        C  0.13280028  0.06838221  0.70970517     0.83000
N216        N  0.12647831  0.07837336  0.68838373    -0.79500
C217        C  0.37670820  0.06027924  0.68327211     0.80400
N218        N  0.40591812  0.04484736  0.69231438    -0.77900
C219        C  0.41906649  0.05701903  0.71192385     0.82900
N220        N  0.40303564  0.08480944  0.72248681    -0.77800
C221        C  0.37369270  0.10016078  0.71357232     0.83000
N222        N  0.36071131  0.08774599  0.69406323    -0.79500
C223        C  0.35586234  0.29853008  0.81816062     0.42700
N224        N  0.32218328  0.25379376  0.81168801     0.01600
C225        C  0.32296062  0.14708504  0.71729433    -0.06300
H226        H  0.31159132  0.28018029  0.70041513     0.07100
C227        C  0.19397680  0.28002366  0.74585735    -0.06700
Co228      Co  0.34536829  0.21325934  0.77112519     0.74200
N229        N  0.31893118  0.25071539  0.73083266    -0.25800
Co230      Co  0.27862865  0.21274791  0.73184390     0.74100
C231        C  0.20669304  0.29692493  0.72555316     0.42800
N232        N  0.21821547  0.25387238  0.79828672     0.01200
N233        N  0.23989623  0.25224510  0.73294624     0.01300
N234        N  0.36680125  0.14745690  0.74300648    -0.46700
H235        H  0.39078440  0.28671943  0.78760198     0.07000
N236        N  0.34382085  0.25152066  0.74619125     0.01600
N237        N  0.23846906  0.17453663  0.73359062     0.01300
C238        C  0.20192411  0.13256085  0.72601191     0.42900
N239        N  0.24303677  0.25363588  0.81369834    -0.25300
C240        C  0.36945696  0.14972368  0.79958285    -0.06200
N241        N  0.32722793  0.28055385  0.82570834    -0.46400
N242        N  0.23068274  0.15029270  0.71835973    -0.46600
C243        C  0.35997519  0.13484649  0.82100470     0.42700
N244        N  0.34333504  0.17331068  0.74665537     0.01600
N245        N  0.24322810  0.17598903  0.81448551    -0.25300
N246        N  0.34587548  0.25309120  0.79546442    -0.25800
N247        N  0.21776722  0.17566748  0.79943724     0.01200
H248        H  0.25368737  0.14315549  0.84318118     0.07100
H249        H  0.16842386  0.14391853  0.75714316     0.07100
N250        N  0.31760987  0.17357750  0.73179527    -0.25900
N251        N  0.21614884  0.25260278  0.74912743    -0.25500
N252        N  0.32301384  0.17618522  0.81294513     0.01600
C253        C  0.35879226  0.29256251  0.72338149     0.43000
C254        C  0.23614496  0.27991612  0.82820402    -0.06700
N255        N  0.21548637  0.17475052  0.75016197    -0.25500
H256        H  0.17150528  0.28695313  0.75623348     0.07100
N257        N  0.36831773  0.27607783  0.74231014    -0.46700
H258        H  0.25107942  0.28559147  0.84307681     0.07100
C259        C  0.20519871  0.13197458  0.82100066     0.42800
C260        C  0.36833691  0.28050371  0.79815728    -0.06200
Co261      Co  0.28290360  0.21485680  0.81374907     0.73800
N262        N  0.19429975  0.27931881  0.80135546    -0.46400
C263        C  0.35541233  0.12982613  0.72476697     0.43100
N264        N  0.33130696  0.15284833  0.82868372    -0.46400
Co265      Co  0.21617302  0.21418349  0.77427661     0.73900
C266        C  0.19166761  0.14879569  0.74698423    -0.06700
C267        C  0.32639968  0.27547480  0.71545925    -0.06300
N268        N  0.34559640  0.17539148  0.79613523    -0.25800
N269        N  0.23514273  0.27826796  0.71835463    -0.46600
H270        H  0.30673129  0.14138544  0.70295049     0.07100
C271        C  0.23748813  0.14933543  0.82891671    -0.06700
Cl272      Cl  0.28078631  0.21368251  0.77276083    -0.49700
C273        C  0.20420137  0.29724669  0.81970431     0.42800
H274        H  0.39236069  0.14424638  0.78922925     0.07000
N275        N  0.19445874  0.14966580  0.80270834    -0.46400
C276        C  0.41255490  0.33059698  0.67789127     0.80400
N277        N  0.38757840  0.31139616  0.68900953    -0.77900
C278        C  0.38243174  0.31635736  0.71106033     0.82900
N279        N  0.40271665  0.34025694  0.72214911    -0.77800
C280        C  0.42671323  0.36065764  0.71110945     0.83000
N281        N  0.43195614  0.35551791  0.68900383    -0.79500
C282        C  0.18667310  0.36726024  0.68402052     0.80400
N283        N  0.20306906  0.33955925  0.69445495    -0.77900
C284        C  0.19040174  0.32745281  0.71423121     0.82900
N285        N  0.16171577  0.34334889  0.72361071    -0.77800
C286        C  0.14545992  0.37113703  0.71351591     0.83000
N287        N  0.15781364  0.38293879  0.69363942    -0.79500
C288        C  0.45044701  0.38381224  0.72386982     0.42700
N289        N  0.49154988  0.42134412  0.73150250     0.01600
C290        C  0.09470866  0.42138026  0.82766659    -0.06300
H291        H  0.45688397  0.44252492  0.84030722     0.07100
C292        C  0.46852138  0.05718456  0.79722530    -0.06700
Co293      Co  0.03190668  0.40091320  0.77262764     0.74200
N294        N  0.49059990  0.42968802  0.81236205    -0.25800
Co295      Co  0.03163112  0.46908060  0.81140908     0.74100
C296        C  0.45397876  0.04767444  0.81887854     0.42800
N297        N  0.49329939  0.02801981  0.74359360     0.01200
N298        N  0.49429436  0.00999669  0.81002717     0.01300
N299        N  0.09485863  0.37878753  0.80106441    -0.46700
H300        H  0.46071760  0.35176285  0.75564912     0.07000
N301        N  0.49034488  0.40348238  0.79769579     0.01600
N302        N  0.06843451  0.00653069  0.80922306     0.01300
C303        C  0.11271450  0.04031718  0.81635240     0.42900
N304        N  0.49380653  0.00206191  0.72874371    -0.25300
C305        C  0.09758166  0.37656737  0.74482877    -0.06200
N306        N  0.46798486  0.41266985  0.71605779    -0.46400
N307        N  0.09451559  0.01158163  0.82358735    -0.46600
C308        C  0.11481152  0.38807217  0.72436700     0.42700
N309        N  0.07056138  0.40347948  0.79711797     0.01600
N310        N  0.06780392  0.00285181  0.72841059    -0.25300
N311        N  0.49130951  0.39893060  0.74837923    -0.25800
N312        N  0.06805517  0.02773773  0.74391505     0.01200
H313        H  0.09733199  0.99670209  0.69779497     0.07100
H314        H  0.10188601  0.07566341  0.78590927     0.07100
N315        N  0.06998156  0.42882250  0.81231138    -0.25900
N316        N  0.49367683  0.03266937  0.79328728    -0.25500
N317        N  0.07134082  0.42312376  0.73145334     0.01600
C318        C  0.44545229  0.39319969  0.81872648     0.43000
C319        C  0.46739747  0.00715627  0.71425268    -0.06700
N320        N  0.06827355  0.03039069  0.79312354    -0.25500
H321        H  0.46328335  0.08042270  0.78713820     0.07100
N322        N  0.46366767  0.38092648  0.80093685    -0.46700
H323        H  0.46156338  0.99052053  0.70007258     0.07100
C324        C  0.10872530  0.04392768  0.72118388     0.42800
C325        C  0.46582190  0.37463629  0.74519629    -0.06200
Co326      Co  0.03196319  0.46221153  0.72952174     0.73800
N327        N  0.46731269  0.05117295  0.74007719    -0.46400
C328        C  0.11145188  0.38847835  0.81989319     0.43100
N329        N  0.09716766  0.41700414  0.71689878    -0.46400
Co330      Co  0.02926795  0.02983282  0.76849712     0.73900
C331        C  0.09544323  0.05298891  0.79623064    -0.06700
C332        C  0.46324380  0.42541335  0.82640799    -0.06300
N333        N  0.07093223  0.39976805  0.74786249    -0.25800
N334        N  0.47148639  0.01849775  0.82600292    -0.46600
H335        H  0.09943382  0.43636496  0.84268780     0.07100
C336        C  0.09244093  0.01109812  0.71303954    -0.06700
Cl337      Cl  0.03149517  0.46564112  0.77049874    -0.49700
C338        C  0.44997320  0.03960012  0.72186544     0.42800
H339        H  0.10356144  0.35401248  0.75534197     0.07000
N340        N  0.09207002  0.05276798  0.74019688    -0.46400
C341        C  0.23982954  0.02548509  0.95026431     0.16200
C342        C  0.23645650  0.05054613  0.93317817    -0.32900
C343        C  0.21847650  0.03997027  0.91392312     0.20600
C344        C  0.20412317  0.00606316  0.91185106     0.02800
C345        C  0.20778598  0.98086956  0.92884831    -0.22600
C346        C  0.22605221  0.99137005  0.94801214     0.11900
S347        S  0.25470805  0.53730530  0.97616754    -0.06300
C348        C  0.24345962  0.49434545  0.98327409    -0.09700
C349        C  0.23264587  0.97067837  0.96623368    -0.26300
S350        S  0.18230338  0.99884219  0.88748092    -0.03500
C351        C  0.19312518  0.04179731  0.87982795    -0.17000
C352        C  0.21252128  0.06050845  0.89550638    -0.15000
H353        H  0.24738852  0.07714355  0.93481808     0.20400
H354        H  0.19685146  0.95427425  0.92721937     0.16400
H355        H  0.22447633  0.94312001  0.96795227     0.18900
H356        H  0.22128235  0.08787291  0.89368094     0.12300
C357        C  0.34348409  0.42061695  0.91109178     0.16200
C358        C  0.33843655  0.44502287  0.92841521    -0.32900
C359        C  0.31914013  0.43357815  0.94699796     0.20600
C360        C  0.30538078  0.39932636  0.94833109     0.02800
C361        C  0.30991985  0.37504936  0.93080105    -0.22600
C362        C  0.32928105  0.38652612  0.91216219     0.11900
S363        S  0.36753206  0.42902636  0.88765915    -0.06300
C364        C  0.35816216  0.38628692  0.87895040    -0.09700
C365        C  0.33732061  0.36674425  0.89360877    -0.26300
S366        S  0.28371494  0.39040154  0.97268057    -0.03500
C367        C  0.29297663  0.43337648  0.98092740    -0.17000
C368        C  0.31196105  0.45329501  0.96560979    -0.15000
H369        H  0.34947849  0.47166772  0.92756476     0.20400
H370        H  0.29919073  0.34829566  0.93175548     0.16400
H371        H  0.32921197  0.33933856  0.89106951     0.18900
H372        H  0.32013537  0.48071166  0.96804332     0.12300
C373        C  0.07347982  0.14869955  0.59322347     0.16200
C374        C  0.07982888  0.12105523  0.60838917    -0.32900
C375        C  0.10286811  0.12807829  0.62613911     0.20600
C376        C  0.11913112  0.16104770  0.62851119     0.02800
C377        C  0.11242012  0.18879513  0.61354570    -0.22600
C378        C  0.08911810  0.18189889  0.59596242     0.11900
S379        S  0.04769639  0.14516148  0.57003748    -0.06300
C380        C  0.05768441  0.18904005  0.56418306    -0.09700
C381        C  0.07984389  0.20526270  0.57948990    -0.26300
S382        S  0.14619736  0.16437277  0.65103316    -0.03500
C383        C  0.13489316  0.12113028  0.65775816    -0.17000
C384        C  0.11167554  0.10505778  0.64296788    -0.15000
H385        H  0.06743380  0.09516801  0.60640173     0.20400
H386        H  0.12486846  0.21466474  0.61551475     0.16400
H387        H  0.08971112  0.23232708  0.57814178     0.18900
H388        H  0.10116729  0.07830225  0.64471734     0.12300
C389        C  0.49366709  0.29376318  0.59404818     0.16200
C390        C  0.99164634  0.32055879  0.60985367    -0.32900
C391        C  0.45943530  0.31382832  0.62537723     0.20600
C392        C  0.43711692  0.28460266  0.62323941     0.02800
C393        C  0.44275720  0.25912311  0.60658658    -0.22600
C394        C  0.47173549  0.26416384  0.59226377     0.11900
S395        S  0.02784738  0.29939162  0.57189791    -0.06300
C396        C  0.01632627  0.25700023  0.56347107    -0.09700
C397        C  0.48193688  0.24197287  0.57533250    -0.26300
S398        S  0.40523010  0.28160518  0.64330276    -0.03500
C399        C  0.42277860  0.31950233  0.65525525    -0.17000
C400        C  0.45118997  0.33411235  0.64365501    -0.15000
H401        H  0.00569804  0.34581886  0.60995422     0.20400
H402        H  0.42570616  0.23589313  0.60515735     0.16400
H403        H  0.46826254  0.21758891  0.57077524     0.18900
H404        H  0.46637337  0.35711802  0.64902077     0.12300
C405        C  0.13355570  0.29047935  0.92120568     0.16200
C406        C  0.13401431  0.26763435  0.93958189    -0.32900
C407        C  0.10244427  0.26387413  0.95176549     0.20600
C408        C  0.07172748  0.28200011  0.94589558     0.02800
C409        C  0.07147283  0.30535931  0.92777832    -0.22600
C410        C  0.10306089  0.30917510  0.91562128     0.11900
S411        S  0.16806946  0.29611149  0.90313265    -0.06300
C412        C  0.14114748  0.32397974  0.88785167    -0.09700
C413        C  0.10745274  0.32893186  0.89670981    -0.26300
S414        S  0.03594284  0.27322697  0.96247053    -0.03500
C415        C  0.06278170  0.24521684  0.97761278    -0.17000
C416        C  0.09753967  0.24294245  0.97013604    -0.15000
H417        H  0.15779006  0.25287176  0.94394459     0.20400
H418        H  0.04747357  0.31952127  0.92312263     0.16400
H419        H  0.08642380  0.34413142  0.88887679     0.18900
H420        H  0.11811236  0.22701702  0.97787400     0.12300
C421        C  0.49999839  0.15692190  0.94461638     0.16200
C422        C  0.50094113  0.13693421  0.92495324    -0.32900
C423        C  0.46852816  0.12969852  0.91440124     0.20600
C424        C  0.43654245  0.14198441  0.92295972     0.02800
C425        C  0.43553279  0.16144945  0.94288049    -0.22600
C426        C  0.46799445  0.16860668  0.95347751     0.11900
S427        S  0.03488014  0.16564803  0.96003422    -0.06300
C428        C  0.50847362  0.18972539  0.97826081    -0.09700
C429        C  0.47266071  0.18720868  0.97290846    -0.26300
S430        S  0.40054907  0.13297023  0.90658163    -0.03500
C431        C  0.42885949  0.11212868  0.88810278    -0.17000
C432        C  0.46422055  0.11207014  0.89462986    -0.15000
H433        H  0.02351306  0.12311179  0.91900978     0.20400
H434        H  0.41060981  0.17110596  0.94962265     0.16400
H435        H  0.45123757  0.19832117  0.98275959     0.18900
H436        H  0.48595103  0.10152546  0.88478446     0.12300
C437        C  0.34082642  0.50741338  0.59242048     0.16200
C438        C  0.36472952  0.50662552  0.61023764    -0.32900
C439        C  0.35803756  0.01770955  0.62920847     0.20600
C440        C  0.32747175  0.03840207  0.62934937     0.02800
C441        C  0.30359683  0.03757883  0.61166143    -0.22600
C442        C  0.31172005  0.01551640  0.59366267     0.11900
S443        S  0.34673520  0.48580801  0.56771108    -0.06300
C444        C  0.30547126  0.50112136  0.55994322    -0.09700
C445        C  0.29163366  0.01159192  0.57498250    -0.26300
S446        S  0.32238276  0.06457066  0.65219312    -0.03500
C447        C  0.36187066  0.04772451  0.66200590    -0.17000
C448        C  0.37792967  0.02278951  0.64809649    -0.15000
H449        H  0.38959375  0.49207777  0.60909015     0.20400
H450        H  0.27969240  0.05380807  0.61183701     0.16400
H451        H  0.26654341  0.02506660  0.57210058     0.18900
H452        H  0.40296560  0.00959053  0.65144326     0.12300
C453        C  0.21000970  0.43692329  0.59404840     0.16200
C454        C  0.18630592  0.43030740  0.61157195    -0.32900
C455        C  0.19864903  0.40993165  0.62949881     0.20600
C456        C  0.23295320  0.39642533  0.62990725     0.02800
C457        C  0.25674465  0.40325835  0.61245826    -0.22600
C458        C  0.24447730  0.42385281  0.59461706     0.11900
S459        S  0.20014415  0.46080544  0.57069759    -0.06300
C460        C  0.24307010  0.45352307  0.56177005    -0.09700
C461        C  0.26356662  0.43332502  0.57614762    -0.26300
S462        S  0.24253492  0.37184005  0.65301741    -0.03500
C463        C  0.20003682  0.38034316  0.66243881    -0.17000
C464        C  0.17972939  0.40096858  0.64816316    -0.15000
H465        H  0.15941508  0.44061055  0.61125929     0.20400
H466        H  0.28364483  0.39297466  0.61276785     0.16400
H467        H  0.29094427  0.42577691  0.57313181     0.18900
H468        H  0.15246273  0.40888384  0.65124105     0.12300
C469        C  0.24049706  0.03693002  0.09264039     0.16200
C470        C  0.23682739  0.06438905  0.10835762    -0.32900
C471        C  0.20879306  0.06171213  0.12373768     0.20600
C472        C  0.18523485  0.03328413  0.12319176     0.02800
C473        C  0.18902085  0.00585546  0.10762301    -0.22600
C474        C  0.21730897  0.00816458  0.09257312     0.11900
S475        S  0.27206577  0.03532639  0.07217400    -0.06300
C476        C  0.24757451  0.49150113  0.06492335    -0.09700
C477        C  0.21246270  0.49163611  0.07189862    -0.26300
S478        S  0.15391764  0.03383345  0.14361898    -0.03500
C479        C  0.17327854  0.07219867  0.15368528    -0.17000
C480        C  0.20195939  0.08432712  0.14119853    -0.15000
H481        H  0.25519573  0.08663275  0.10872232     0.20400
H482        H  0.17093415  0.98335119  0.10745508     0.16400
H483        H  0.19095187  0.47810459  0.06344412     0.18900
H484        H  0.21817247  0.10722103  0.14538502     0.12300
C485        C  0.07175757  0.15449739  0.44982219     0.16200
C486        C  0.07323033  0.13086500  0.43179045    -0.32900
C487        C  0.09288408  0.14145506  0.41308042     0.20600
C488        C  0.11075120  0.17379967  0.41252012     0.02800
C489        C  0.10927970  0.19734483  0.43049331    -0.22600
C490        C  0.08921594  0.18705304  0.44898865     0.11900
S491        S  0.04824354  0.14752735  0.47375816    -0.06300
C492        C  0.06135061  0.18934867  0.48227085    -0.09700
C493        C  0.08343173  0.20707399  0.46757514    -0.26300
S494        S  0.13353778  0.18167530  0.38854857    -0.03500
C495        C  0.11860914  0.14110621  0.37895159    -0.17000
C496        C  0.09709538  0.12262591  0.39374178    -0.15000
H497        H  0.05931064  0.10558333  0.43220560     0.20400
H498        H  0.12285377  0.22282635  0.42997740     0.16400
H499        H  0.09391427  0.23367016  0.47016819     0.18900
H500        H  0.08557609  0.09662627  0.39063540     0.12300
C501        C  0.31200399  0.02603664  0.44374808     0.16200
C502        C  0.31161194  0.04547043  0.42392835    -0.32900
C503        C  0.34416961  0.05150698  0.41323426     0.20600
C504        C  0.37579518  0.03842285  0.42172360     0.02800
C505        C  0.37621863  0.01911687  0.44170313    -0.22600
C506        C  0.34356721  0.01330670  0.45252706     0.11900
S507        S  0.27524754  0.01642816  0.45917748    -0.06300
C508        C  0.29768020  0.50512538  0.47792097    -0.09700
C509        C  0.33276068  0.50174803  0.47117562    -0.26300
S510        S  0.41211002  0.04694445  0.40538848    -0.03500
C511        C  0.38435871  0.06873207  0.38711378    -0.17000
C512        C  0.34895941  0.06923259  0.39358256    -0.15000
H513        H  0.28690460  0.05540533  0.41708966     0.20400
H514        H  0.39435326  0.50758492  0.44578960     0.16400
H515        H  0.35283068  0.48678982  0.48006064     0.18900
H516        H  0.32752960  0.08050990  0.38387233     0.12300
C517        C  0.10254736  0.25338071  0.09181693     0.16200
C518        C  0.12657096  0.25602463  0.10950241    -0.32900
C519        C  0.11601719  0.27585170  0.12815120     0.20600
C520        C  0.08312166  0.29252572  0.12904261     0.02800
C521        C  0.05899616  0.28955483  0.11151315    -0.22600
C522        C  0.06943789  0.26958146  0.09297472     0.11900
S523        S  0.11008668  0.23045308  0.06772914    -0.06300
C524        C  0.06795444  0.24230219  0.05943022    -0.09700
C525        C  0.04946511  0.26326457  0.07445544    -0.26300
S526        S  0.07563304  0.31632697  0.15267375    -0.03500
C527        C  0.11709897  0.30339460  0.16169159    -0.17000
C528        C  0.13557909  0.28174158  0.14698537    -0.15000
H529        H  0.15238927  0.24317952  0.10875801     0.20400
H530        H  0.03314420  0.30235491  0.11227723     0.16400
H531        H  0.02253858  0.27283714  0.07205643     0.18900
H532        H  0.16212412  0.27142573  0.14974444     0.12300
C533        C  0.47174878  0.18468933  0.09388913     0.16200
C534        C  0.44884487  0.18415903  0.11227897    -0.32900
C535        C  0.45985939  0.16501353  0.13102514     0.20600
C536        C  0.49211076  0.14708282  0.13139242     0.02800
C537        C  0.01783365  0.15210492  0.11392442    -0.22600
C538        C  0.50414218  0.16703410  0.09445744     0.11900
S539        S  0.46378768  0.20688164  0.06965521    -0.06300
C540        C  0.50478223  0.19263308  0.06049913    -0.09700
C541        C  0.02566450  0.17509134  0.07587852    -0.26300
S542        S  0.50013493  0.12422309  0.15523994    -0.03500
C543        C  0.45959155  0.13893594  0.16492350    -0.17000
C544        C  0.44115659  0.16072101  0.15037745    -0.15000
H545        H  0.42360666  0.19801890  0.11199138     0.20400
H546        H  0.04378540  0.13968214  0.11464840     0.16400
H547        H  0.05259194  0.16570295  0.07333258     0.18900
H548        H  0.41506020  0.17185809  0.15350608     0.12300
C549        C  0.21952264  0.38298120  0.41729666     0.16200
C550        C  0.24514067  0.39216357  0.43314099    -0.32900
C551        C  0.23531287  0.41659321  0.44967418     0.20600
C552        C  0.20121257  0.43058014  0.45077113     0.02800
C553        C  0.17565022  0.42152894  0.43483806    -0.22600
C554        C  0.18573714  0.39775634  0.41796171     0.11900
S555        S  0.22686304  0.35539218  0.39524693    -0.06300
C556        C  0.18435368  0.36475293  0.38631667    -0.09700
C557        C  0.16543862  0.38746109  0.40018145    -0.26300
S558        S  0.19426560  0.45891804  0.47258549    -0.03500
C559        C  0.23804303  0.45265199  0.47983949    -0.17000
C560        C  0.25666796  0.42941929  0.46622625    -0.15000
H561        H  0.27178482  0.38120982  0.43238672     0.20400
H562        H  0.14919037  0.43294307  0.43538356     0.16400
H563        H  0.13875943  0.39701644  0.39697706     0.18900
H564        H  0.28419350  0.42183557  0.46862601     0.12300
C565        C  0.37411136  0.39603641  0.11945549     0.16200
C566        C  0.37246298  0.41628662  0.09994054    -0.32900
C567        C  0.34008318  0.41695203  0.08845202     0.20600
C568        C  0.31055519  0.39841374  0.09606680     0.02800
C569        C  0.31240787  0.37764749  0.11534540    -0.22600
C570        C  0.34483818  0.37686201  0.12678007     0.11900
S571        S  0.41014123  0.39365002  0.13662007    -0.06300
C572        C  0.38567143  0.36612515  0.15373282    -0.09700
C573        C  0.35145569  0.35930443  0.14625967    -0.26300
S574        S  0.27334253  0.40373820  0.08021034    -0.03500
C575        C  0.29803888  0.43075694  0.06303323    -0.17000
C576        C  0.33309804  0.43534547  0.06932896    -0.15000
H577        H  0.39526167  0.43133197  0.09414872     0.20400
H578        H  0.28941723  0.36312908  0.12135206     0.16400
H579        H  0.33185570  0.34362329  0.15513509     0.18900
H580        H  0.35228576  0.45151202  0.06044003     0.12300
C581        C  0.46197741  0.26782557  0.41317011     0.16200
C582        C  0.46611562  0.24393813  0.43082232    -0.32900
C583        C  0.48617387  0.25520053  0.44907653     0.20600
C584        C  0.00666069  0.28867179  0.44810500     0.02800
C585        C  0.00331879  0.31219307  0.43004948    -0.22600
C586        C  0.47733999  0.30143314  0.41373357     0.11900
S587        S  0.43874386  0.25889135  0.38957426    -0.06300
C588        C  0.45019544  0.30066567  0.38000100    -0.09700
C589        C  0.47085135  0.32039153  0.39462369    -0.26300
S590        S  0.02859148  0.29758652  0.47239638    -0.03500
C591        C  0.01804724  0.25508113  0.48115882    -0.17000
C592        C  0.49382271  0.23537504  0.46751761    -0.15000
H593        H  0.45441674  0.21755013  0.43027366     0.20400
H594        H  0.01492360  0.33861373  0.43054965     0.16400
H595        H  0.48028777  0.34722883  0.39154006     0.18900
H596        H  0.48500468  0.20819157  0.47013419     0.12300
C597        C  0.44317016  0.80972098  0.35595405     0.80400
N598        N  0.41488685  0.79349862  0.34621156    -0.77900
C599        C  0.40087342  0.80665358  0.32715153     0.82900
N600        N  0.41550170  0.83605466  0.31767555    -0.77800
C601        C  0.44396558  0.85226014  0.32718263     0.83000
N602        N  0.45758953  0.83918280  0.34637859    -0.79500
C603        C  0.40235658  0.85592414  0.17649134     0.80400
N604        N  0.38341966  0.83045309  0.18747424    -0.77900
C605        C  0.38934181  0.82435203  0.20937323     0.82900
N606        N  0.41373607  0.84427491  0.22035763    -0.77800
C607        C  0.43370968  0.86868355  0.20938717     0.83000
N608        N  0.42769543  0.87475253  0.18752473    -0.79500
C609        C  0.16995370  0.85052214  0.36324458     0.80400
N610        N  0.14471370  0.87022066  0.35277604    -0.77900
C611        C  0.13834987  0.86525819  0.33081760     0.82900
N612        N  0.15766288  0.84092725  0.31924886    -0.77800
C613        C  0.18169589  0.82009503  0.32985055     0.83000
N614        N  0.18809183  0.82526469  0.35172333    -0.79500
C615        C  0.44489803  0.62691168  0.18457422     0.80400
N616        N  0.41531623  0.64205236  0.19341192    -0.77900
C617        C  0.40071554  0.62876836  0.21233597     0.82900
N618        N  0.41549430  0.59979401  0.22230203    -0.77800
C619        C  0.44509962  0.58455808  0.21344203     0.83000
N620        N  0.45970277  0.59835725  0.19472784    -0.79500
C621        C  0.45971911  0.88396358  0.31684813     0.42700
N622        N  0.99406136  0.92776750  0.31003051     0.01600
C623        C  0.99448094  0.53595523  0.21539179    -0.06300
H624        H  0.00719472  0.90096853  0.19867272     0.07100
C625        C  0.12502052  0.90584917  0.24446726    -0.06700
Co626      Co  0.47118931  0.96972145  0.27057183     0.74200
N627        N  0.99887466  0.93031132  0.22912897    -0.25800
Co628      Co  0.03811951  0.96960788  0.23018665     0.74100
C629        C  0.11324599  0.88877156  0.22407596     0.42800
N630        N  0.09856720  0.93108826  0.29697929     0.01200
N631        N  0.07807225  0.93167533  0.23155397     0.01300
N632        N  0.44915631  0.53431032  0.24103852    -0.46700
H633        H  0.42554229  0.89616330  0.28618089     0.07000
N634        N  0.47324754  0.93178130  0.24541363     0.01600
N635        N  0.07814807  0.50849401  0.23108152     0.01300
C636        C  0.11349882  0.55164547  0.22371243     0.42900
N637        N  0.07347882  0.93059239  0.31233331    -0.25300
C638        C  0.44227286  0.52984849  0.29694189    -0.06200
N639        N  0.98892069  0.90133739  0.32429090    -0.46400
N640        N  0.08533417  0.53318190  0.21601594    -0.46600
C641        C  0.45092611  0.54474144  0.31850795     0.42700
N642        N  0.47172940  0.50747375  0.24392027     0.01600
N643        N  0.07073614  0.50698163  0.31185081    -0.25300
N644        N  0.47013480  0.92977231  0.29461479    -0.25800
N645        N  0.09650224  0.50790968  0.29692070     0.01200
H646        H  0.05928762  0.53907374  0.34079592     0.07100
H647        H  0.14683176  0.54111595  0.25494733     0.07100
N648        N  0.99926239  0.50835345  0.22907810    -0.25900
N649        N  0.10160246  0.93219965  0.24776626    -0.25500
N650        N  0.99115218  0.50432787  0.30986108     0.01600
C651        C  0.45776379  0.89188037  0.22190677     0.43000
C652        C  0.08142060  0.90525772  0.32724175    -0.06700
N653        N  0.10082901  0.50878873  0.24772038    -0.25500
H654        H  0.14768554  0.89988651  0.25481335     0.07100
N655        N  0.44834117  0.90787734  0.24106310    -0.46700
H656        H  0.06659105  0.89946779  0.34219153     0.07100
C657        C  0.10785306  0.55138984  0.31870423     0.42800
C658        C  0.44766359  0.90227642  0.29693985    -0.06200
Co659      Co  0.03225814  0.96784549  0.31206230     0.73800
N660        N  0.12359143  0.90691671  0.30041987    -0.46400
C661        C  0.46151345  0.55295116  0.22343547     0.43100
N662        N  0.98185412  0.52704946  0.32576164    -0.46400
Co663      Co  0.09973733  0.97058397  0.27274364     0.73900
C664        C  0.12405441  0.53543082  0.24463140    -0.06700
C665        C  0.99214139  0.90529553  0.21373090    -0.06300
N666        N  0.46727392  0.50523578  0.29332751    -0.25800
N667        N  0.08414631  0.90611986  0.21687253    -0.46600
H668        H  0.01131800  0.54286545  0.20147808     0.07100
C669        C  0.07571709  0.53349798  0.32646654    -0.06700
Cl670      Cl  0.03518571  0.96885583  0.27108423    -0.49700
C671        C  0.11430831  0.88930178  0.31902925     0.42800
H672        H  0.41927745  0.53455817  0.28661272     0.07000
N673        N  0.11930167  0.53415541  0.30040617    -0.46400
C674        C  0.13405234  0.81994463  0.18214823     0.80400
N675        N  0.11801238  0.84760615  0.19275621    -0.77900
C676        C  0.13009278  0.85885343  0.21272652     0.82900
N677        N  0.15812711  0.84233994  0.22220482    -0.77800
C678        C  0.17416402  0.81455173  0.21191329     0.83000
N679        N  0.16223728  0.80332884  0.19180203    -0.79500
C680        C  0.39402887  0.58135720  0.36332030     0.80400
N681        N  0.42023264  0.56247936  0.35292757    -0.77900
C682        C  0.42754376  0.56847832  0.33113835     0.82900
N683        N  0.40840579  0.59290511  0.31979356    -0.77800
C684        C  0.38330463  0.61268498  0.33013281     0.83000
N685        N  0.37569803  0.60656937  0.35182275    -0.79500
C686        C  0.13402792  0.62223531  0.35816171     0.80400
N687        N  0.16044482  0.63850573  0.34655937    -0.77900
C688        C  0.17006994  0.62638131  0.32620005     0.82900
N689        N  0.15296650  0.59795885  0.31732091    -0.77800
C690        C  0.12616951  0.58184573  0.32864191     0.83000
N691        N  0.11681513  0.59387875  0.34911363    -0.79500
C692        C  0.16261759  0.58848606  0.17598762     0.80400
N693        N  0.13861527  0.56976195  0.18815448    -0.77900
C694        C  0.13538080  0.57559562  0.21026671     0.82900
N695        N  0.15639235  0.60015729  0.22026076    -0.77800
C696        C  0.17925918  0.62020878  0.20807487     0.83000
N697        N  0.18286953  0.61385147  0.18601092    -0.79500
C698        C  0.36582927  0.80073192  0.22210250     0.42700
N699        N  0.32477981  0.76292068  0.22966422     0.01600
C700        C  0.22078881  0.76306016  0.32515974    -0.06300
H701        H  0.35700818  0.74047689  0.33864792     0.07100
C702        C  0.34641980  0.62709245  0.29523652    -0.06700
Co703      Co  0.28619108  0.78367792  0.27112268     0.74200
N704        N  0.32388006  0.75378036  0.31063738    -0.25800
Co705      Co  0.28395764  0.71529460  0.30968423     0.74100
C706        C  0.36100285  0.63615409  0.31682499     0.42800
N707        N  0.32391384  0.65690328  0.24231417     0.01200
N708        N  0.32124676  0.67441490  0.30844732     0.01300
N709        N  0.22220469  0.80603876  0.29887564    -0.46700
H710        H  0.35534659  0.83235613  0.25408154     0.07000
N711        N  0.32487378  0.77992253  0.29597386     0.01600
N712        N  0.24416645  0.67694903  0.30737361     0.01300
C713        C  0.19952104  0.64333899  0.31420197     0.42900
N714        N  0.32443441  0.68306263  0.22763941    -0.25300
C715        C  0.22116978  0.80866429  0.24330742    -0.06200
N716        N  0.34826211  0.77196563  0.21415477    -0.46400
N717        N  0.21804850  0.67159612  0.32176628    -0.46600
C718        C  0.20425347  0.79729723  0.22278068     0.42700
N719        N  0.24682588  0.78149733  0.29529268     0.01600
N720        N  0.24717594  0.68285285  0.22657473    -0.25300
N721        N  0.32505546  0.78507361  0.24669004    -0.25800
N722        N  0.24605462  0.65771484  0.24186004     0.01200
H723        H  0.21699269  0.69110675  0.19651688     0.07100
H724        H  0.21023734  0.60877672  0.28329408     0.07100
N725        N  0.24652791  0.75603581  0.31035223    -0.25900
N726        N  0.32166297  0.65195016  0.29159407    -0.25500
N727        N  0.24753957  0.76235755  0.22966581     0.01600
C728        C  0.36959204  0.78958888  0.31711592     0.43000
C729        C  0.35205915  0.67835067  0.21390328    -0.06700
N730        N  0.24418420  0.65361976  0.29094331    -0.25500
H731        H  0.35140210  0.60397716  0.28494335     0.07100
N732        N  0.35185600  0.80204181  0.29927730    -0.46700
H733        H  0.35913870  0.69541373  0.20014661     0.07100
C734        C  0.20427836  0.64366954  0.21952554     0.42800
C735        C  0.35046594  0.80949991  0.24356486    -0.06200
Co736      Co  0.28600407  0.72279876  0.22784249     0.73800
N737        N  0.35034600  0.63395790  0.23940156    -0.46400
C738        C  0.20436815  0.79587427  0.31721137     0.43100
N739        N  0.22191431  0.76852485  0.21512977    -0.46400
Co740      Co  0.28400274  0.65434901  0.26658676     0.73900
C741        C  0.21671012  0.63121712  0.29380214    -0.06700
C742        C  0.35109994  0.75768091  0.32476240    -0.06300
N743        N  0.24778015  0.78549468  0.24621152    -0.25800
N744        N  0.34384708  0.66538054  0.32430643    -0.46600
H745        H  0.21499021  0.74768916  0.33987811     0.07100
C746        C  0.22189748  0.67593701  0.21141725    -0.06700
Cl747      Cl  0.28510551  0.71902755  0.26879828    -0.49700
C748        C  0.36909699  0.64590643  0.22178284     0.42800
H749        H  0.21494055  0.83100943  0.25398496     0.07000
N750        N  0.22090970  0.63382803  0.23825318    -0.46400
C751        C  0.28816903  0.97949575  0.49882864     0.02500
C752        C  0.25551655  0.96067065  0.49928958     0.02500
C753        C  0.23958272  0.95228426  0.51965477    -0.18000
C754        C  0.25641900  0.96050569  0.53964481     0.02500
C755        C  0.28993744  0.97746100  0.53938071     0.02500
C756        C  0.30545152  0.98695080  0.51900241    -0.18000
H757        H  0.32427865  0.51736742  0.51837034     0.04500
H758        H  0.21472343  0.93759198  0.51995106     0.04500
C759        C  0.02376704  0.70809011  0.03872780     0.02500
C760        C  0.05487460  0.72915472  0.03864354     0.02500
C761        C  0.07001025  0.73939657  0.01841169    -0.18000
C762        C  0.05466069  0.72898769  0.99821452     0.02500
C763        C  0.02473125  0.70612565  0.99827130     0.02500
C764        C  0.51173638  0.69552129  0.01926080    -0.18000
H765        H  0.48961270  0.67697416  0.01958549     0.04500
H766        H  0.09277372  0.75714436  0.01842481     0.04500
C767        C  0.04875954  0.70285751  0.50270094     0.02500
C768        C  0.02969354  0.73524705  0.50188137     0.02500
C769        C  0.01878862  0.75162656  0.52164502    -0.18000
C770        C  0.02546740  0.73571030  0.54230533     0.02500
C771        C  0.04407555  0.70286740  0.54306473     0.02500
C772        C  0.05533839  0.68680150  0.52322717    -0.18000
H773        H  0.07045922  0.66219222  0.52380736     0.04500
H774        H  0.49971670  0.77461263  0.52115462     0.04500
C775        C  0.28335133  0.94350423  0.04408157     0.02500
C776        C  0.26540107  0.97657778  0.04356441     0.02500
C777        C  0.25548727  0.99124917  0.02313486    -0.18000
C778        C  0.26356809  0.97383482  0.00317724     0.02500
C779        C  0.28271280  0.94138955  0.00363848     0.02500
C780        C  0.29149813  0.92606860  0.02408968    -0.18000
H781        H  0.30678042  0.90153346  0.02442254     0.04500
H782        H  0.22813950  0.51300370  0.02480522     0.04500
C783        C  0.37953227  0.86991500  0.85983696     0.80400
N784        N  0.40656594  0.88721580  0.84941301    -0.77900
C785        C  0.41833035  0.87602914  0.82926042     0.82900
N786        N  0.40264711  0.84765063  0.81935522    -0.77800
C787        C  0.37521332  0.83055906  0.82946297     0.83000
N788        N  0.36383587  0.84155940  0.84976912    -0.79500
C789        C  0.41887577  0.60361595  0.86566252     0.80400
N790        N  0.39222195  0.62154722  0.85522351    -0.77900
C791        C  0.38509887  0.61492735  0.83351812     0.82900
N792        N  0.40484636  0.59072320  0.82226793    -0.77800
C793        C  0.43048601  0.57178799  0.83260977     0.83000
N794        N  0.43796582  0.57864825  0.85425332    -0.79500
C795        C  0.18104637  0.56110563  0.85868408     0.80400
N796        N  0.19852785  0.58959342  0.84997547    -0.77900
C797        C  0.18855435  0.60306423  0.83000804     0.82900
N798        N  0.16081783  0.58823047  0.81891636    -0.77800
C799        C  0.14349996  0.55971589  0.82759954     0.83000
N800        N  0.15378649  0.54623316  0.84736308    -0.79500
C801        C  0.15016361  0.83783820  0.86498773     0.80400
N802        N  0.17573225  0.81913641  0.85412020    -0.77900
C803        C  0.17933528  0.82210238  0.83180681     0.81300
N804        N  0.15706764  0.84372129  0.82027213    -0.77800
C805        C  0.13253041  0.86373454  0.83118261     0.83000
N806        N  0.12878476  0.86033276  0.85346562    -0.79500
C807        C  0.14611198  0.60539131  0.67879012     0.80400
N808        N  0.17152067  0.62266389  0.69066782    -0.77900
C809        C  0.17804303  0.61346681  0.71201518     0.82900
N810        N  0.15838828  0.58751527  0.72172594    -0.77800
C811        C  0.13395010  0.56911763  0.70981725     0.83000
N812        N  0.12750081  0.57832337  0.68839258    -0.79500
C813        C  0.37274717  0.56056121  0.68536742     0.80400
N814        N  0.40203250  0.54466174  0.69401497    -0.77900
C815        C  0.41602688  0.55672204  0.71343349     0.82900
N816        N  0.40092616  0.58504703  0.72403887    -0.77800
C817        C  0.37157971  0.60078927  0.71536495     0.83000
N818        N  0.35770063  0.58832286  0.69620647    -0.79500
C819        C  0.35811627  0.80034765  0.81836564     0.42700
N820        N  0.32321669  0.75675045  0.81148909     0.01600
C821        C  0.32244048  0.64903693  0.71805621    -0.06300
H822        H  0.31310551  0.78149843  0.69916830     0.07100
C823        C  0.19208613  0.78021712  0.74546465    -0.06700
Co824      Co  0.34598699  0.71651618  0.77079984     0.74200
N825        N  0.31924470  0.75365017  0.73032036    -0.25800
Co826      Co  0.27878461  0.71546734  0.73163740     0.74100
C827        C  0.20346715  0.79653655  0.72471650     0.42800
N828        N  0.21882805  0.75574954  0.79827829     0.01200
N829        N  0.23938647  0.75439982  0.73279529     0.01300
N830        N  0.36648857  0.64987454  0.74366576    -0.46700
H831        H  0.39240222  0.78874275  0.78752109     0.07000
N832        N  0.34415920  0.75460579  0.74568436     0.01600
N833        N  0.23872515  0.67692868  0.73336508     0.01300
C834        C  0.20171926  0.63535194  0.72559390     0.42900
N835        N  0.24364098  0.75584170  0.81370856    -0.25300
C836        C  0.37105218  0.65325451  0.79933151    -0.06200
N837        N  0.32923812  0.78273105  0.82592232    -0.46400
N838        N  0.23049542  0.65310811  0.71793929    -0.46600
C839        C  0.36171684  0.63833782  0.82078051     0.42700
N840        N  0.34370127  0.67650682  0.74665218     0.01600
N841        N  0.24479326  0.67824944  0.81427977    -0.25300
N842        N  0.34664065  0.75618928  0.79510310    -0.25800
N843        N  0.21937203  0.67777342  0.79921310     0.01200
H844        H  0.25555341  0.64509242  0.84279934     0.07100
H845        H  0.16876035  0.64624516  0.75700891     0.07100
N846        N  0.31786268  0.67650350  0.73186936    -0.25900
N847        N  0.21582724  0.75431513  0.74909420    -0.25500
N848        N  0.32439293  0.67931059  0.81270105     0.01600
C849        C  0.36048699  0.79402586  0.72201224     0.43000
C850        C  0.23605161  0.78169042  0.82840977    -0.06700
N851        N  0.21601805  0.67683870  0.75007781    -0.25500
H852        H  0.16909654  0.78600372  0.75566286     0.07100
N853        N  0.36930885  0.77828565  0.74132139    -0.46700
H854        H  0.25071932  0.78738831  0.84337862     0.07100
C855        C  0.20725931  0.63373232  0.82045567     0.42800
C856        C  0.36973906  0.78295457  0.79799085    -0.06200
Co857      Co  0.28402219  0.71756522  0.81359819     0.73800
N858        N  0.19433183  0.78054567  0.80147033    -0.46400
C859        C  0.35444694  0.63147013  0.72594951     0.43100
N860        N  0.33290161  0.65607958  0.82844049    -0.46400
Co861      Co  0.21693392  0.71616595  0.77424686     0.73900
C862        C  0.19194506  0.65111719  0.74680007    -0.06700
C863        C  0.32750637  0.77745290  0.71444065    -0.06300
N864        N  0.34690760  0.67869616  0.79586539    -0.25800
N865        N  0.23284929  0.77919233  0.71767595    -0.46600
H866        H  0.30568453  0.64253222  0.70408697     0.07100
C867        C  0.23933873  0.65130810  0.82855111    -0.06700
Cl868      Cl  0.28144800  0.71649795  0.77257180    -0.49700
C869        C  0.20366712  0.79832340  0.81996136     0.42800
H870        H  0.39396288  0.64791190  0.78895971     0.07000
N871        N  0.19635872  0.65153093  0.80230023    -0.46400
C872        C  0.41697538  0.83063856  0.67697521     0.80400
N873        N  0.39099695  0.81191843  0.68762447    -0.77900
C874        C  0.38497012  0.81721411  0.70965286     0.82900
N875        N  0.40520562  0.84096275  0.72097994    -0.77800
C876        C  0.43005475  0.86081830  0.71030220     0.83000
N877        N  0.43625608  0.85521967  0.68840230    -0.79500
C878        C  0.17980216  0.86359945  0.68206791     0.80400
N879        N  0.19668213  0.83636295  0.69261573    -0.77900
C880        C  0.18557690  0.82562545  0.71300032     0.82900
N881        N  0.15760702  0.84212181  0.72278750    -0.77800
C882        C  0.14088857  0.86946431  0.71251134     0.83000
N883        N  0.15197613  0.88021101  0.69215099    -0.79500
C884        C  0.45334321  0.88432447  0.72315722     0.42700
N885        N  0.49422702  0.92217614  0.73082639     0.01600
C886        C  0.09162477  0.91962031  0.82668267    -0.06300
H887        H  0.46019905  0.94321926  0.84017242     0.07100
C888        C  0.46763934  0.55707747  0.79749982    -0.06700
Co889      Co  0.02853816  0.90031806  0.77158391     0.74200
N890        N  0.49313228  0.93075383  0.81182365    -0.25800
Co891      Co  0.02912510  0.96772362  0.81087989     0.74100
C892        C  0.45317506  0.54831827  0.81924491     0.42800
N893        N  0.49113134  0.52721143  0.74413787     0.01200
N894        N  0.49231775  0.50936501  0.81043277     0.01300
N895        N  0.09140180  0.87698105  0.80008241    -0.46700
H896        H  0.46336574  0.85267494  0.75509921     0.07000
N897        N  0.49258496  0.90473242  0.79705709     0.01600
N898        N  0.07008983  0.50854583  0.80921881     0.01300
C899        C  0.11350559  0.54343213  0.81609745     0.42900
N900        N  0.49114661  0.50122294  0.72932189    -0.25300
C901        C  0.09375605  0.87560770  0.74396362    -0.06200
N902        N  0.47094528  0.91315592  0.71528515    -0.46400
N903        N  0.09595924  0.51446631  0.82354545    -0.46600
C904        C  0.11109437  0.88709170  0.72359558     0.42700
N905        N  0.06711261  0.90178664  0.79623446     0.01600
N906        N  0.06954029  0.50316509  0.72864686    -0.25300
N907        N  0.49373142  0.89997505  0.74779499    -0.25800
N908        N  0.06925566  0.52839926  0.74392266     0.01200
H909        H  0.09987634  0.49652784  0.69838008     0.07100
H910        H  0.10199160  0.57806389  0.78544352     0.07100
N911        N  0.06679137  0.92706274  0.81146560    -0.25900
N912        N  0.49205513  0.53187041  0.79360436    -0.25500
N913        N  0.06833468  0.92276111  0.73074909     0.01600
C914        C  0.44829569  0.89417320  0.81848911     0.43000
C915        C  0.46428680  0.50644716  0.71513729    -0.06700
N916        N  0.06943160  0.53212110  0.79296212    -0.25500
H917        H  0.46306236  0.58040187  0.78736092     0.07100
N918        N  0.46607314  0.88206200  0.80048025    -0.46700
H919        H  0.45789291  0.48979060  0.70106139     0.07100
C920        C  0.11031807  0.54442572  0.72143970     0.42800
C921        C  0.46842294  0.87550262  0.74459681    -0.06200
Co922      Co  0.02965265  0.96240652  0.72892517     0.73800
N923        N  0.46514097  0.55047287  0.74093388    -0.46400
C924        C  0.10816770  0.88676048  0.81886405     0.43100
N925        N  0.09400667  0.91636117  0.71617576    -0.46400
Co926      Co  0.03047012  0.53035298  0.76846060     0.73900
C927        C  0.09607283  0.55540277  0.79589550    -0.06700
C928        C  0.46616355  0.92631866  0.82610711    -0.06300
N929        N  0.06753520  0.89919674  0.74703224    -0.25800
N930        N  0.46999619  0.51877426  0.82649645    -0.46600
H931        H  0.09664287  0.93469424  0.84163610     0.07100
C932        C  0.09444293  0.51128561  0.71341708    -0.06700
Cl933      Cl  0.02910745  0.96508629  0.76995492    -0.49700
C934        C  0.44717398  0.53900867  0.72294975     0.42800
H935        H  0.09923125  0.85275109  0.75433252     0.07000
N936        N  0.09313469  0.55354694  0.74020570    -0.46400
C937        C  0.23290522  0.53069414  0.95173942     0.16200
C938        C  0.23146921  0.55538308  0.93435337    -0.32900
C939        C  0.21366514  0.54510567  0.91499639     0.20600
C940        C  0.19726703  0.51208107  0.91324454     0.02800
C941        C  0.19873805  0.48740321  0.93058383    -0.22600
C942        C  0.21722181  0.49735502  0.94970700     0.11900
S943        S  0.26069658  0.03314487  0.97492820    -0.06300
C944        C  0.25139855  0.98970683  0.98208716    -0.09700
C945        C  0.22320388  0.47633890  0.96780022    -0.26300
S946        S  0.17647810  0.50481368  0.88863039    -0.03500
C947        C  0.19063871  0.54643869  0.88038696    -0.17000
C948        C  0.21020980  0.56489807  0.89605430    -0.15000
H949        H  0.24419657  0.58121372  0.93570562     0.20400
H950        H  0.18648726  0.46135540  0.92909591     0.16400
H951        H  0.21427335  0.44899467  0.96948303     0.18900
H952        H  0.22087144  0.59149721  0.89382082     0.12300
C953        C  0.35401077  0.91411794  0.91504410     0.16200
C954        C  0.34861914  0.93768116  0.93272730    -0.32900
C955        C  0.32790310  0.92580860  0.95057110     0.20600
C956        C  0.31352410  0.89176793  0.95109131     0.02800
C957        C  0.31881253  0.86814625  0.93329588    -0.22600
C958        C  0.33912008  0.88028206  0.91519876     0.11900
S959        S  0.37804685  0.92386450  0.89181136    -0.06300
C960        C  0.36737480  0.88220005  0.88181681    -0.09700
C961        C  0.34653982  0.86185304  0.89604758    -0.26300
S962        S  0.28905931  0.88283768  0.97444738    -0.03500
C963        C  0.29759194  0.92578674  0.98310087    -0.17000
C964        C  0.31892492  0.94534599  0.96886612    -0.15000
H965        H  0.35979113  0.96430678  0.93248526     0.20400
H966        H  0.30729048  0.84168118  0.93342920     0.16400
H967        H  0.33739218  0.83503936  0.89258560     0.18900
H968        H  0.32700459  0.97270919  0.97167420     0.12300
C969        C  0.07121811  0.64632136  0.59333310     0.16200
C970        C  0.07775698  0.61910235  0.60877898    -0.32900
C971        C  0.10158004  0.62643580  0.62609179     0.20600
C972        C  0.11841480  0.65923232  0.62772206     0.02800
C973        C  0.11146228  0.68653947  0.61252512    -0.22600
C974        C  0.08734886  0.67940952  0.59544452     0.11900
S975        S  0.04468468  0.64238589  0.57049969    -0.06300
C976        C  0.05487592  0.68601873  0.56411668    -0.09700
C977        C  0.07773225  0.70242468  0.57888638    -0.26300
S978        S  0.14645178  0.66307754  0.64971695    -0.03500
C979        C  0.13479269  0.62035233  0.65732803    -0.17000
C980        C  0.11073751  0.60398599  0.64315467    -0.15000
H981        H  0.06494210  0.59333264  0.60732365     0.20400
H982        H  0.12434321  0.71229480  0.61395538     0.16400
H983        H  0.08788489  0.72930972  0.57705862     0.18900
H984        H  0.09984940  0.57751349  0.64552514     0.12300
C985        C  0.50138169  0.78604425  0.59600560     0.16200
C986        C  0.97846827  0.81954643  0.60517636    -0.32900
C987        C  0.46808360  0.80893265  0.62687706     0.20600
C988        C  0.43749881  0.79271211  0.61899719     0.02800
C989        C  0.43801022  0.77355891  0.59897286    -0.22600
C990        C  0.47065564  0.77055787  0.58772842     0.11900
S991        S  0.01462645  0.79790237  0.56751582    -0.06300
C992        C  0.01046478  0.75282852  0.56240223    -0.09700
C993        C  0.47694394  0.75221289  0.56840762    -0.26300
S994        S  0.40163768  0.79644283  0.63642023    -0.03500
C995        C  0.42813713  0.82044137  0.65434625    -0.17000
C996        C  0.46270466  0.82536173  0.64688507    -0.15000
H997        H  0.98814091  0.84659501  0.60302675     0.20400
H998        H  0.41420253  0.76069600  0.59273847     0.16400
H999        H  0.45679679  0.73818912  0.55897521     0.18900
H1000       H  0.48350356  0.83851773  0.65625283     0.12300
C1001       C  0.13608622  0.79825066  0.92265645     0.16200
C1002       C  0.13822346  0.77757531  0.94196908    -0.32900
C1003       C  0.10636556  0.76970488  0.95307916     0.20600
C1004       C  0.07392000  0.78210472  0.94538589     0.02800
C1005       C  0.07190423  0.80348073  0.92645920    -0.22600
C1006       C  0.10364812  0.81118442  0.91531242     0.11900
S1007       S  0.17086865  0.80707349  0.90524374    -0.06300
C1008       C  0.14128448  0.82838959  0.88796616    -0.09700
C1009       C  0.10659342  0.82912527  0.89568721    -0.26300
S1010       S  0.03816270  0.76884579  0.96063593    -0.03500
C1011       C  0.06712327  0.74633699  0.97767641    -0.17000
C1012       C  0.10265775  0.74937343  0.97181432    -0.15000
H1013       H  0.16348266  0.76716722  0.94770623     0.20400
H1014       H  0.04650103  0.81294963  0.92033481     0.16400
H1015       H  0.08415124  0.83963818  0.88652066     0.18900
H1016       H  0.12450960  0.73740237  0.98082443     0.12300
C1017       C  0.50280869  0.65533303  0.94524654     0.16200
C1018       C  0.50276846  0.63433747  0.92596757    -0.32900
C1019       C  0.47035452  0.62989431  0.91480847     0.20600
C1020       C  0.43934155  0.64571701  0.92246049     0.02800
C1021       C  0.43922717  0.66608291  0.94201773    -0.22600
C1022       C  0.47164348  0.67050260  0.95319076     0.11900
S1023       S  0.03832474  0.66592941  0.95984067    -0.06300
C1024       C  0.51265526  0.68927519  0.97826918    -0.09700
C1025       C  0.47707491  0.68970714  0.97229361    -0.26300
S1026       S  0.40349706  0.63968154  0.90547179    -0.03500
C1027       C  0.43046813  0.61528249  0.88793149    -0.17000
C1028       C  0.46530527  0.61195092  0.89520669    -0.15000
H1029       H  0.02613758  0.62316940  0.91894939     0.20400
H1030       H  0.41506759  0.67853902  0.94802141     0.16400
H1031       H  0.45637980  0.70348722  0.98142255     0.18900
H1032       H  0.48633340  0.59879191  0.88601190     0.12300
C1033       C  0.34231370  0.99488909  0.59316364     0.16200
C1034       C  0.36619527  0.99536927  0.61109884    -0.32900
C1035       C  0.35518267  0.52511871  0.62961058     0.20600
C1036       C  0.32339417  0.54376354  0.63103333     0.02800
C1037       C  0.29953434  0.54445894  0.61331812    -0.22600
C1038       C  0.30891583  0.52579589  0.59409368     0.11900
S1039       S  0.34709352  0.97029075  0.56934436    -0.06300
C1040       C  0.30735665  0.98798792  0.56033150    -0.09700
C1041       C  0.28855650  0.52232656  0.57549298    -0.26300
S1042       S  0.31689570  0.56541108  0.65548563    -0.03500
C1043       C  0.35749320  0.54934313  0.66405866    -0.17000
C1044       C  0.37484349  0.52795699  0.64868481    -0.15000
H1045       H  0.39015799  0.97930429  0.61086987     0.20400
H1046       H  0.27457342  0.55887024  0.61450797     0.16400
H1047       H  0.26219114  0.53359386  0.57351958     0.18900
H1048       H  0.40082720  0.51608789  0.65106297     0.12300
C1049       C  0.20764208  0.93631913  0.59363924     0.16200
C1050       C  0.18555419  0.93433829  0.61241864    -0.32900
C1051       C  0.19370111  0.90845746  0.62847340     0.20600
C1052       C  0.22220494  0.88537522  0.62579908     0.02800
C1053       C  0.24422175  0.88743018  0.60713368    -0.22600
C1054       C  0.23644357  0.91349858  0.59129909     0.11900
S1055       S  0.20290275  0.96594422  0.57225706    -0.06300
C1056       C  0.24051715  0.94761833  0.56051100    -0.09700
C1057       C  0.25544461  0.91999298  0.57239932    -0.26300
S1058       S  0.22800483  0.85601223  0.64703901    -0.03500
C1059       C  0.19196279  0.87526298  0.65999247    -0.17000
C1060       C  0.17617943  0.90277275  0.64813977    -0.15000
H1061       H  0.16328206  0.95232365  0.61452256     0.20400
H1062       H  0.26673773  0.86967718  0.60514395     0.16400
H1063       H  0.27913575  0.90555141  0.56744699     0.18900
H1064       H  0.15338876  0.91802120  0.65370688     0.12300
C1065       C  0.24039339  0.52724425  0.09721090     0.16200
C1066       C  0.24173608  0.55023246  0.11547966    -0.32900
C1067       C  0.20994256  0.55689172  0.12690538     0.20600
C1068       C  0.17823247  0.54093773  0.12070237     0.02800
C1069       C  0.17675293  0.51830937  0.10220848    -0.22600
C1070       C  0.20851429  0.51203732  0.09058645     0.11900
S1071       S  0.27603981  0.51627636  0.08101266    -0.06300
C1072       C  0.25417232  0.99515205  0.06394963    -0.09700
C1073       C  0.22524302  0.98396974  0.07628700    -0.26300
S1074       S  0.14337287  0.54992963  0.13804492    -0.03500
C1075       C  0.17181132  0.57581681  0.15362531    -0.17000
C1076       C  0.20626340  0.57744524  0.14551453    -0.15000
H1077       H  0.26655866  0.56230434  0.12063865     0.20400
H1078       H  0.15202079  0.50589553  0.09721400     0.16400
H1079       H  0.21010396  0.95996208  0.07298707     0.18900
H1080       H  0.22810416  0.59090613  0.15369165     0.12300
C1081       C  0.07604813  0.65013610  0.45073694     0.16200
C1082       C  0.07915937  0.62561268  0.43325237    -0.32900
C1083       C  0.09883778  0.63605902  0.41453018     0.20600
C1084       C  0.11533500  0.66910233  0.41350834     0.02800
C1085       C  0.11228611  0.69353446  0.43096443    -0.22600
C1086       C  0.09202304  0.68340859  0.44942773     0.11900
S1087       S  0.05208211  0.64334092  0.47449481    -0.06300
C1088       C  0.06298608  0.68609590  0.48235854    -0.09700
C1089       C  0.08465757  0.70413708  0.46753367    -0.26300
S1090       S  0.13786662  0.67695811  0.38944727    -0.03500
C1091       C  0.12434109  0.63560728  0.38033595    -0.17000
C1092       C  0.10379329  0.61669641  0.39544416    -0.15000
H1093       H  0.06625733  0.59981431  0.43403067     0.20400
H1094       H  0.12465051  0.71959275  0.43001822     0.16400
H1095       H  0.09396028  0.73124460  0.46974817     0.18900
H1096       H  0.09301080  0.59030907  0.39259974     0.12300
C1097       C  0.30847709  0.53720190  0.44428249     0.16200
C1098       C  0.30938154  0.55770566  0.42481307    -0.32900
C1099       C  0.34168968  0.55949433  0.41310482     0.20600
C1100       C  0.37169184  0.54157305  0.42040158     0.02800
C1101       C  0.37093822  0.52164214  0.44005749    -0.22600
C1102       C  0.33872624  0.51991016  0.45178488     0.11900
S1103       S  0.27181569  0.53097212  0.46067477    -0.06300
C1104       C  0.30239769  0.99472560  0.47782396    -0.09700
C1105       C  0.33825942  0.99546044  0.47219267    -0.26300
S1106       S  0.40748989  0.54473445  0.40299215    -0.03500
C1107       C  0.38195373  0.57071302  0.38568679    -0.17000
C1108       C  0.34757615  0.57671361  0.39334941    -0.15000
H1109       H  0.28581616  0.57126656  0.41888601     0.20400
H1110       H  0.40087114  0.00887803  0.44843292     0.16400
H1111       H  0.35927949  0.98363871  0.48198588     0.18900
H1112       H  0.32737469  0.59133523  0.38437325     0.12300
C1113       C  0.10464641  0.75344510  0.09206782     0.16200
C1114       C  0.12798261  0.75558001  0.11012806    -0.32900
C1115       C  0.11861050  0.77826290  0.12772509     0.20600
C1116       C  0.08757546  0.79822130  0.12722312     0.02800
C1117       C  0.06408954  0.79580314  0.10931501    -0.22600
C1118       C  0.07324507  0.77285485  0.09187054     0.11900
S1119       S  0.11108764  0.72751450  0.06907297    -0.06300
C1120       C  0.07071042  0.74242729  0.05943836    -0.09700
C1121       C  0.05354743  0.76645361  0.07323003    -0.26300
S1122       S  0.08120112  0.82469023  0.14987162    -0.03500
C1123       C  0.12046277  0.80830062  0.16042909    -0.17000
C1124       C  0.13755053  0.78378346  0.14684497    -0.15000
H1125       H  0.15236696  0.74013676  0.11047628     0.20400
H1126       H  0.03961976  0.81111817  0.10902112     0.16400
H1127       H  0.02785259  0.77833817  0.06981994     0.18900
H1128       H  0.16253976  0.77081177  0.15070080     0.12300
C1129       C  0.47546655  0.68561016  0.09279296     0.16200
C1130       C  0.45091760  0.68325391  0.11027566    -0.32900
C1131       C  0.46189948  0.66602009  0.12973538     0.20600
C1132       C  0.49572889  0.65163025  0.13163471     0.02800
C1133       C  0.01509636  0.65044829  0.11205942    -0.22600
C1134       C  0.50952214  0.67187269  0.09495429     0.11900
S1135       S  0.46728283  0.70504288  0.06770834    -0.06300
C1136       C  0.51044323  0.69528762  0.06037024    -0.09700
C1137       C  0.02568978  0.67621130  0.07512543    -0.26300
S1138       S  0.50324326  0.62971311  0.15591889    -0.03500
C1139       C  0.46045631  0.64028563  0.16377357    -0.17000
C1140       C  0.44163884  0.66004278  0.14831433    -0.15000
H1141       H  0.42435615  0.69405708  0.10870303     0.20400
H1142       H  0.04118572  0.63840837  0.11325666     0.16400
H1143       H  0.05274743  0.66687064  0.07310456     0.18900
H1144       H  0.41424356  0.66839111  0.15021762     0.12300
C1145       C  0.21794768  0.87732089  0.41651674     0.16200
C1146       C  0.24369573  0.88493539  0.43256225    -0.32900
C1147       C  0.23514497  0.91028312  0.44880735     0.20600
C1148       C  0.20217322  0.92684536  0.44936156     0.02800
C1149       C  0.17654289  0.91946333  0.43316905    -0.22600
C1150       C  0.18532272  0.89455279  0.41667652     0.11900
S1151       S  0.22383944  0.84864227  0.39487492    -0.06300
C1152       C  0.18231410  0.86077508  0.38548774    -0.09700
C1153       C  0.16474110  0.88518656  0.39887568    -0.26300
S1154       S  0.19651839  0.95574999  0.47100779    -0.03500
C1155       C  0.23935233  0.94604626  0.47897447    -0.17000
C1156       C  0.25672785  0.92147940  0.46565774    -0.15000
H1157       H  0.26944443  0.87196492  0.43224691     0.20400
H1158       H  0.15097464  0.93279070  0.43330649     0.16400
H1159       H  0.13892190  0.89658877  0.39528842     0.18900
H1160       H  0.28349056  0.91181910  0.46849145     0.12300
C1161       C  0.37330199  0.90331197  0.12328980     0.16200
C1162       C  0.36515848  0.92923739  0.10736875    -0.32900
C1163       C  0.33683657  0.92228768  0.09293801     0.20600
C1164       C  0.31796623  0.89054684  0.09390957     0.02800
C1165       C  0.32609483  0.86461598  0.10986618    -0.22600
C1166       C  0.35394619  0.87191761  0.12463679     0.11900
S1167       S  0.40488716  0.90795189  0.14333265    -0.06300
C1168       C  0.39109574  0.86773398  0.15423297    -0.09700
C1169       C  0.36416827  0.85128714  0.14229229    -0.26300
S1170       S  0.28569625  0.88654810  0.07416151    -0.03500
C1171       C  0.29737728  0.92834474  0.06484079    -0.17000
C1172       C  0.32485657  0.94425346  0.07642961    -0.15000
H1173       H  0.37987542  0.95404190  0.10651410     0.20400
H1174       H  0.31106109  0.84002734  0.11091186     0.16400
H1175       H  0.35134867  0.82653903  0.14699582     0.18900
H1176       H  0.33639564  0.96991036  0.07234959     0.12300
C1177       C  0.47062318  0.76283986  0.40989924     0.16200
C1178       C  0.47414284  0.73956463  0.42790672    -0.32900
C1179       C  0.49358153  0.75141862  0.44627752     0.20600
C1180       C  0.00779320  0.78332388  0.44736024     0.02800
C1181       C  0.00555638  0.80642019  0.42910896    -0.22600
C1182       C  0.48656632  0.79618243  0.41007934     0.11900
S1183       S  0.44608811  0.75408645  0.38676778    -0.06300
C1184       C  0.45739939  0.79573819  0.37702127    -0.09700
C1185       C  0.47940718  0.81508290  0.39107993    -0.26300
S1186       S  0.03175158  0.79131963  0.47093203    -0.03500
C1187       C  0.01794677  0.75036642  0.48054382    -0.17000
C1188       C  0.49925500  0.73276565  0.46546410    -0.15000
H1189       H  0.46166989  0.71351297  0.42777466     0.20400
H1190       H  0.01958902  0.83164818  0.42895478     0.16400
H1191       H  0.48874753  0.84191636  0.38788488     0.18900
H1192       H  0.48984240  0.70588701  0.46848325     0.12300
C1193       C  0.94268681  0.31238515  0.35649564     0.80400
N1194       N  0.91388034  0.29638870  0.34724038    -0.77900
C1195       C  0.90045741  0.30837525  0.32774558     0.82900
N1196       N  0.91616797  0.33614638  0.31728021    -0.77800
C1197       C  0.94516424  0.35200409  0.32620082     0.83000
N1198       N  0.95829532  0.34034087  0.34591675    -0.79500
C1199       C  0.90032907  0.35296076  0.17425512     0.80400
N1200       N  0.88119629  0.32897524  0.18634178    -0.77900
C1201       C  0.88822496  0.32394593  0.20819070     0.82900
N1202       N  0.91370413  0.34377969  0.21811865    -0.77800
C1203       C  0.93372593  0.36697406  0.20618769     0.83000
N1204       N  0.92691125  0.37174912  0.18421634    -0.79500
C1205       C  0.66926410  0.35381586  0.36237578     0.80400
N1206       N  0.64295776  0.37166392  0.35169716    -0.77900
C1207       C  0.63593152  0.36459364  0.33005271     0.82900
N1208       N  0.65570146  0.34000251  0.31896611    -0.77800
C1209       C  0.68083974  0.32088340  0.32984932     0.83000
N1210       N  0.68788071  0.32823678  0.35140599    -0.79500
C1211       C  0.94547902  0.12685108  0.18579010     0.80400
N1212       N  0.91678630  0.14287049  0.19513264    -0.77900
C1213       C  0.90251826  0.12989431  0.21422112     0.82900
N1214       N  0.91674041  0.10038924  0.22388717    -0.77800
C1215       C  0.94548579  0.08431610  0.21452859     0.83000
N1216       N  0.95974453  0.09775075  0.19561620    -0.79500
C1217       C  0.96166232  0.38196964  0.31464265     0.42700
N1218       N  0.49223970  0.42782507  0.30915137     0.01600
C1219       C  0.49589622  0.03754627  0.21819141    -0.06300
H1220       H  0.50484827  0.40212532  0.19687921     0.07100
C1221       C  0.62403509  0.40522863  0.24399422    -0.06700
Co1222     Co  0.97106643  0.46728165  0.26770294     0.74200
N1223       N  0.49763610  0.43041206  0.22786361    -0.25800
Co1224     Co  0.53737160  0.46925007  0.22924539     0.74100
C1225       C  0.61257694  0.38790017  0.22364053     0.42800
N1226       N  0.59662778  0.43024722  0.29618238     0.01200
N1227       N  0.57715918  0.43088266  0.23078676     0.01300
N1228       N  0.94954549  0.03399784  0.24205936    -0.46700
H1229       H  0.92692447  0.39272553  0.28395190     0.07000
N1230       N  0.97372440  0.42973420  0.24231164     0.01600
N1231       N  0.57880532  0.00916026  0.23349534     0.01300
C1232       C  0.61545225  0.05099393  0.22558495     0.42900
N1233       N  0.57146786  0.42992876  0.31147452    -0.25300
C1234       C  0.94439892  0.03090548  0.29769435    -0.06200
N1235       N  0.48656249  0.40207392  0.32379837    -0.46400
N1236       N  0.58680485  0.03305975  0.21808222    -0.46600
C1237       C  0.95361714  0.04629066  0.31904200     0.42700
N1238       N  0.97233900  0.00736092  0.24495426     0.01600
N1239       N  0.57216209  0.00726423  0.31464902    -0.25300
N1240       N  0.97119369  0.42712000  0.29175537    -0.25800
N1241       N  0.59776397  0.00792655  0.29959106     0.01200
H1242       H  0.56213255  0.03886483  0.34402003     0.07100
H1243       H  0.64851504  0.04032863  0.25690503     0.07100
N1244       N  0.50004733  0.00985704  0.23184613    -0.25900
N1245       N  0.60049240  0.43151725  0.24711153    -0.25500
N1246       N  0.49221880  0.00678462  0.31257825     0.01600
C1247       C  0.95780701  0.39088438  0.21820654     0.43000
C1248       C  0.57881821  0.40406199  0.32614335    -0.06700
N1249       N  0.60146388  0.00932484  0.25015695    -0.25500
H1250       H  0.64655046  0.39937753  0.25449256     0.07100
N1251       N  0.94878652  0.40605235  0.23769014    -0.46700
H1252       H  0.56374985  0.39817284  0.34098620     0.07100
C1253       C  0.61078535  0.05043202  0.32183884     0.42800
C1254       C  0.94923414  0.39931707  0.29444520    -0.06200
Co1255     Co  0.53066847  0.46764176  0.31120758     0.73800
N1256       N  0.62115560  0.40553165  0.29946390    -0.46400
C1257       C  0.96158013  0.05242681  0.22429030     0.43100
N1258       N  0.48347566  0.03026910  0.32820145    -0.46400
Co1259     Co  0.59846539  0.46985453  0.27210884     0.73900
C1260       C  0.62538758  0.03523017  0.24676784    -0.06700
C1261       C  0.49012884  0.40615560  0.21209439    -0.06300
N1262       N  0.96874246  0.00554096  0.29428997    -0.25800
N1263       N  0.58346789  0.40513922  0.21623509    -0.46600
H1264       H  0.51290865  0.04415956  0.20430353     0.07100
C1265       C  0.57816940  0.03323922  0.32952386    -0.06700
Cl1266     Cl  0.53395673  0.46851752  0.27020103    -0.49700
C1267       C  0.61142323  0.38756459  0.31784633     0.42800
H1268       H  0.92156339  0.03604993  0.28730600     0.07000
N1269       N  0.62140312  0.03339147  0.30326759    -0.46400
C1270       C  0.63195267  0.31588779  0.18351412     0.80400
N1271       N  0.61626227  0.34429469  0.19354066    -0.77900
C1272       C  0.62931773  0.35730853  0.21283291     0.82900
N1273       N  0.65797452  0.34169981  0.22225408    -0.77800
C1274       C  0.67370408  0.31318146  0.21250809     0.83000
N1275       N  0.66080340  0.30029821  0.19303668    -0.79500
C1276       C  0.89596815  0.08104115  0.36388054     0.80400
N1277       N  0.92251098  0.06284939  0.35341311    -0.77900
C1278       C  0.93031554  0.06991981  0.33182786     0.82900
N1279       N  0.91137681  0.09490685  0.32076449    -0.77800
C1280       C  0.88592451  0.11414791  0.33124629     0.83000
N1281       N  0.87770564  0.10669958  0.35269482    -0.79500
C1282       C  0.63641288  0.12269358  0.36058904     0.80400
N1283       N  0.66330553  0.13835711  0.34906867    -0.77900
C1284       C  0.67369225  0.12516567  0.32908493     0.82900
N1285       N  0.65684003  0.09632601  0.32049475    -0.77800
C1286       C  0.62958670  0.08078668  0.33172594     0.83000
N1287       N  0.61951240  0.09390867  0.35180927    -0.79500
C1288       C  0.67013074  0.08105132  0.17819828     0.80400
N1289       N  0.64475238  0.06393372  0.19027065    -0.77900
C1290       C  0.63878964  0.07298705  0.21176166     0.82900
N1291       N  0.65872318  0.09882920  0.22131532    -0.77800
C1292       C  0.68303249  0.11716357  0.20919976     0.83000
N1293       N  0.68908667  0.10793215  0.18771592    -0.79500
C1294       C  0.86532344  0.30100426  0.22180750     0.42700
N1295       N  0.82486550  0.26315293  0.23035487     0.01600
C1296       C  0.72093571  0.26408591  0.32589301    -0.06300
H1297       H  0.85665647  0.24286728  0.33986375     0.07100
C1298       C  0.84876424  0.12883021  0.29658295    -0.06700
Co1299     Co  0.78639837  0.28437655  0.27172604     0.74200
N1300       N  0.82401343  0.25538065  0.31152278    -0.25800
Co1301     Co  0.78493952  0.21642498  0.31089130     0.74100
C1302       C  0.86349488  0.13794748  0.31809509     0.42800
N1303       N  0.82558696  0.15776348  0.24398215     0.01200
N1304       N  0.82308117  0.17587044  0.30989238     0.01300
N1305       N  0.72206708  0.30646168  0.29924961    -0.46700
H1306       H  0.85529422  0.33375985  0.25346409     0.07000
N1307       N  0.82493904  0.28122967  0.29665416     0.01600
N1308       N  0.74593005  0.17733292  0.30903738     0.01300
C1309       C  0.70291000  0.14218242  0.31684486     0.42900
N1310       N  0.82581017  0.18368899  0.22915815    -0.25300
C1311       C  0.72130712  0.30858250  0.24369282    -0.06200
N1312       N  0.84787036  0.27180685  0.21452143    -0.46400
N1313       N  0.72060531  0.17131451  0.32386825    -0.46600
C1314       C  0.70425974  0.29660067  0.22334793     0.42700
N1315       N  0.74699640  0.28211643  0.29593941     0.01600
N1316       N  0.74860794  0.18207943  0.22795501    -0.25300
N1317       N  0.82526815  0.28583321  0.24710671    -0.25800
N1318       N  0.74773925  0.15724714  0.24344324     0.01200
H1319       H  0.71940424  0.18868176  0.19736647     0.07100
H1320       H  0.71390260  0.10726010  0.28610156     0.07100
N1321       N  0.74686483  0.25691371  0.31119900    -0.25900
N1322       N  0.82365192  0.15336382  0.29306687    -0.25500
N1323       N  0.74767909  0.26188310  0.23052983     0.01600
C1324       C  0.86902966  0.29160437  0.31803921     0.43000
C1325       C  0.85384634  0.17942064  0.21569259    -0.06700
N1326       N  0.74623706  0.15367152  0.29279037    -0.25500
H1327       H  0.85385040  0.10575883  0.28627293     0.07100
N1328       N  0.85164454  0.30362620  0.29995810    -0.46700
H1329       H  0.86086711  0.19643516  0.20190421     0.07100
C1330       C  0.70712625  0.14154341  0.22068062     0.42800
C1331       C  0.85039383  0.31044471  0.24335408    -0.06200
Co1332     Co  0.78668533  0.22267854  0.22899587     0.73800
N1333       N  0.85251594  0.13533517  0.24139787    -0.46400
C1334       C  0.70414729  0.29657108  0.31761162     0.43100
N1335       N  0.72193303  0.26759735  0.21599381    -0.46400
Co1336     Co  0.78577310  0.15488457  0.26821514     0.73900
C1337       C  0.71976200  0.13028431  0.29625853    -0.06700
C1338       C  0.85082470  0.25977828  0.32582432    -0.06300
N1339       N  0.74794881  0.28550389  0.24681136    -0.25800
N1340       N  0.84597428  0.16700316  0.32567652    -0.46600
H1341       H  0.71517420  0.24899353  0.34072967     0.07100
C1342       C  0.72406697  0.17411296  0.21252653    -0.06700
Cl1343     Cl  0.78593265  0.21960582  0.26995391    -0.49700
C1344       C  0.87138318  0.14745849  0.22389774     0.42800
H1345       H  0.71508058  0.33119366  0.25415011     0.07000
N1346       N  0.72342762  0.13256022  0.23970075    -0.46400
C1347       C  0.78564299  0.48768222  0.49829473     0.02500
C1348       C  0.75385459  0.46752219  0.49775113     0.02500
C1349       C  0.73863978  0.45541612  0.51766455    -0.18000
C1350       C  0.75511928  0.46183603  0.53809896     0.02500
C1351       C  0.78731191  0.48143160  0.53868135     0.02500
C1352       C  0.80231855  0.49385483  0.51876917    -0.18000
H1353       H  0.82438108  0.01215947  0.51754786     0.04500
H1354       H  0.71462958  0.43939464  0.51717314     0.04500
C1355       C  0.52091362  0.20551381  0.03968901     0.02500
C1356       C  0.55194864  0.22664959  0.03999363     0.02500
C1357       C  0.56714989  0.23788353  0.01997745    -0.18000
C1358       C  0.55191659  0.22849264  0.99955432     0.02500
C1359       C  0.52181600  0.20571216  0.99918610     0.02500
C1360       C  0.00632352  0.19488629  0.01925379    -0.18000
H1361       H  0.98388080  0.17674724  0.01973221     0.04500
H1362       H  0.58996378  0.25555444  0.02036378     0.04500
C1363       C  0.54662072  0.20661533  0.50377206     0.02500
C1364       C  0.52747585  0.23907874  0.50339832     0.02500
C1365       C  0.51780777  0.25529710  0.52351345    -0.18000
C1366       C  0.52560889  0.23909065  0.54393679     0.02500
C1367       C  0.54390398  0.20614962  0.54428709     0.02500
C1368       C  0.55410483  0.19028164  0.52415639    -0.18000
H1369       H  0.56909266  0.16557850  0.52438004     0.04500
H1370       H  0.00812707  0.28175748  0.52222346     0.04500
C1371       C  0.78483735  0.44811420  0.04196265     0.02500
C1372       C  0.75653353  0.47300455  0.04234868     0.02500
C1373       C  0.73981228  0.48268049  0.02247770    -0.18000
C1374       C  0.75152083  0.46895767  0.00219299     0.02500
C1375       C  0.78008909  0.44468443  0.00168474     0.02500
C1376       C  0.79655493  0.43451190  0.02150365    -0.18000
H1377       H  0.81797355  0.41516345  0.02102065     0.04500
H1378       H  0.74804162  0.01924643  0.02490854     0.04500
C1379       C  0.87624261  0.37218925  0.85825266     0.80400
N1380       N  0.90483002  0.38794207  0.84857811    -0.77900
C1381       C  0.91763096  0.37577437  0.82892222     0.82900
N1382       N  0.90189770  0.34754297  0.81893108    -0.77800
C1383       C  0.87320951  0.33173392  0.82843427     0.83000
N1384       N  0.86037360  0.34406827  0.84807921    -0.79500
C1385       C  0.91527401  0.09929860  0.86596311     0.80400
N1386       N  0.88915704  0.11790213  0.85546529    -0.77900
C1387       C  0.88273374  0.11230600  0.83357165     0.82900
N1388       N  0.90262271  0.08835248  0.82219846    -0.77800
C1389       C  0.92776895  0.06874808  0.83254973     0.83000
N1390       N  0.93458744  0.07466605  0.85439914    -0.79500
C1391       C  0.68088754  0.06250300  0.86048030     0.80400
N1392       N  0.69789914  0.09126598  0.85162050    -0.77900
C1393       C  0.68778118  0.10449633  0.83157569     0.82900
N1394       N  0.66052224  0.08902208  0.82046393    -0.77800
C1395       C  0.64361353  0.06027546  0.82910980     0.83000
N1396       N  0.65388569  0.04704505  0.84905280    -0.79500
C1397       C  0.65080262  0.33706219  0.86638097     0.80400
N1398       N  0.67632414  0.31854496  0.85528436    -0.77900
C1399       C  0.68023282  0.32244933  0.83300979     0.81300
N1400       N  0.65834576  0.34484547  0.82177619    -0.77800
C1401       C  0.63385543  0.36466829  0.83286933     0.83000
N1402       N  0.62977979  0.36030905  0.85509760    -0.79500
C1403       C  0.64909002  0.10425517  0.67814536     0.80400
N1404       N  0.67400929  0.12180864  0.69027761    -0.77900
C1405       C  0.67982315  0.11300714  0.71177814     0.82900
N1406       N  0.66007053  0.08703051  0.72135645    -0.77800
C1407       C  0.63612460  0.06830207  0.70925971     0.83000
N1408       N  0.63029797  0.07720032  0.68768467    -0.79500
C1409       C  0.87400400  0.06249034  0.68376265     0.80400
N1410       N  0.90356470  0.04689895  0.69228281    -0.77900
C1411       C  0.91715659  0.05852119  0.71191791     0.82900
N1412       N  0.90146063  0.08614252  0.72284037    -0.77800
C1413       C  0.87192366  0.10166783  0.71431901     0.83000
N1414       N  0.85827965  0.08956789  0.69495961    -0.79500
C1415       C  0.85688712  0.30090172  0.81772759     0.42700
N1416       N  0.82317921  0.25624553  0.81158039     0.01600
C1417       C  0.82234085  0.14935140  0.71784894    -0.06300
H1418       H  0.81300555  0.28245837  0.70020622     0.07100
C1419       C  0.69353825  0.28194021  0.74564547    -0.06700
Co1420     Co  0.84609414  0.21567207  0.77113030     0.74200
N1421       N  0.81967773  0.25344838  0.73087023    -0.25800
Co1422     Co  0.77909285  0.21569833  0.73192867     0.74100
C1423       C  0.70564949  0.29854236  0.72508811     0.42800
N1424       N  0.71909152  0.25651022  0.79863254     0.01200
N1425       N  0.74021334  0.25512289  0.73300319     0.01300
N1426       N  0.86636319  0.14936808  0.74346926    -0.46700
H1427       H  0.89171984  0.28878179  0.78720639     0.07000
N1428       N  0.84467227  0.25394239  0.74617312     0.01600
N1429       N  0.73892170  0.17753944  0.73351322     0.01300
C1430       C  0.70263581  0.13547418  0.72557907     0.42900
N1431       N  0.74396609  0.25615770  0.81402556    -0.25300
C1432       C  0.87006032  0.15176916  0.79959193    -0.06200
N1433       N  0.82833693  0.28307954  0.82549630    -0.46400
N1434       N  0.73135384  0.15344847  0.71813721    -0.46600
C1435       C  0.86018573  0.13669491  0.82091786     0.42700
N1436       N  0.84354221  0.17585486  0.74683342     0.01600
N1437       N  0.74433391  0.17877445  0.81469035    -0.25300
N1438       N  0.84679937  0.25538193  0.79532603    -0.25800
N1439       N  0.71883390  0.17828034  0.79966766     0.01200
H1440       H  0.75479735  0.14664646  0.84368736     0.07100
H1441       H  0.66899117  0.14616786  0.75680007     0.07100
N1442       N  0.81776213  0.17635328  0.73202000    -0.25900
N1443       N  0.71648648  0.25527146  0.74921314    -0.25500
N1444       N  0.82384877  0.17865280  0.81294982     0.01600
C1445       C  0.86044593  0.29433189  0.72309595     0.43000
C1446       C  0.73667742  0.28177750  0.82894285    -0.06700
N1447       N  0.71594834  0.17742799  0.75009816    -0.25500
H1448       H  0.67072427  0.28831725  0.75586570     0.07100
N1449       N  0.86965696  0.27791124  0.74210041    -0.46700
H1450       H  0.75142928  0.28697254  0.84394933     0.07100
C1451       C  0.70625301  0.13513481  0.82166349     0.42800
C1452       C  0.86930818  0.28272300  0.79782706    -0.06200
Co1453     Co  0.78390228  0.21746084  0.81382424     0.73800
N1454       N  0.69479951  0.28146692  0.80210784    -0.46400
C1455       C  0.85433781  0.13155393  0.72549502     0.43100
N1456       N  0.83169124  0.15496970  0.82857052    -0.46400
Co1457     Co  0.71687880  0.21683320  0.77444442     0.73900
C1458       C  0.69219859  0.15139818  0.74667740    -0.06700
C1459       C  0.82763646  0.27782345  0.71532776    -0.06300
N1460       N  0.84646906  0.17776496  0.79617086    -0.25800
N1461       N  0.73461617  0.28049351  0.71807128    -0.46600
H1462       H  0.80575416  0.14348445  0.70369055     0.07100
C1463       C  0.73861147  0.15248398  0.82936267    -0.06700
Cl1464     Cl  0.78147118  0.21641121  0.77283840    -0.49700
C1465       C  0.70436613  0.29882983  0.82075408     0.42800
H1466       H  0.89285274  0.14596874  0.78921418     0.07000
N1467       N  0.69545312  0.15245701  0.80322784    -0.46400
C1468       C  0.91749823  0.32933980  0.67814442     0.80400
N1469       N  0.89168997  0.31081427  0.68901007    -0.77900
C1470       C  0.88471941  0.31742052  0.71071108     0.82900
N1471       N  0.90421119  0.34202576  0.72173075    -0.77800
C1472       C  0.92903349  0.36163070  0.71087275     0.83000
N1473       N  0.93595060  0.35505179  0.68911751    -0.79500
C1474       C  0.68344023  0.36786655  0.68316666     0.80400
N1475       N  0.70033376  0.34037030  0.69355694    -0.77900
C1476       C  0.68850060  0.32845593  0.71357736     0.82900
N1477       N  0.65998308  0.34418016  0.72320079    -0.77800
C1478       C  0.64317986  0.37168039  0.71319916     0.83000
N1479       N  0.65480630  0.38348993  0.69310975    -0.79500
C1480       C  0.95237118  0.38484167  0.72370592     0.42700
N1481       N  0.99400995  0.42170928  0.73112878     0.01600
C1482       C  0.59254178  0.42067671  0.82817080    -0.06300
H1483       H  0.95986355  0.44222251  0.84033535     0.07100
C1484       C  0.96562802  0.05560989  0.79742042    -0.06700
Co1485     Co  0.52974248  0.40031114  0.77298778     0.74200
N1486       N  0.99300772  0.42978418  0.81209740    -0.25800
Co1487     Co  0.52997906  0.46858135  0.81171220     0.74100
C1488       C  0.95100829  0.04599281  0.81901691     0.42800
N1489       N  0.99052255  0.02760905  0.74368300     0.01200
N1490       N  0.99124339  0.00824957  0.81005613     0.01300
N1491       N  0.59281960  0.37786766  0.80170030    -0.46700
H1492       H  0.96241079  0.35268704  0.75548051     0.07000
N1493       N  0.99268846  0.40372217  0.79735033     0.01600
N1494       N  0.57122809  0.00867421  0.80929945     0.01300
C1495       C  0.61434733  0.04352914  0.81700090     0.42900
N1496       N  0.99106599  0.00209229  0.72853762    -0.25300
C1497       C  0.59573904  0.37634150  0.74493279    -0.06200
N1498       N  0.97024250  0.41335663  0.71577125    -0.46400
N1499       N  0.59649833  0.01454337  0.82407555    -0.46600
C1500       C  0.61261574  0.38812190  0.72435997     0.42700
N1501       N  0.56845791  0.40251617  0.79763281     0.01600
N1502       N  0.57067379  0.00332651  0.72834127    -0.25300
N1503       N  0.99358920  0.39939303  0.74804285    -0.25800
N1504       N  0.57100917  0.02849792  0.74366741     0.01200
H1505       H  0.60052641  0.99626181  0.69791198     0.07100
H1506       H  0.60388041  0.07838194  0.78623870     0.07100
N1507       N  0.56782187  0.42791776  0.81278466    -0.25900
N1508       N  0.99071243  0.03109120  0.79341726    -0.25500
N1509       N  0.56879114  0.42244393  0.73161612     0.01600
C1510       C  0.94849439  0.39299102  0.81872874     0.43000
C1511       C  0.96509443  0.00805391  0.71384413    -0.06700
N1512       N  0.57113977  0.03230226  0.79305469    -0.25500
H1513       H  0.96052057  0.07898426  0.78742118     0.07100
N1514       N  0.96629374  0.38091597  0.80073368    -0.46700
H1515       H  0.95945024  0.99201604  0.69937021     0.07100
C1516       C  0.61202018  0.04397952  0.72090648     0.42800
C1517       C  0.96780290  0.37541970  0.74496421    -0.06200
Co1518     Co  0.52991846  0.46166326  0.72978314     0.73800
N1519       N  0.96499167  0.05126333  0.74017885    -0.46400
C1520       C  0.60935305  0.38776051  0.82055432     0.43100
N1521       N  0.59453913  0.41673899  0.71698241    -0.46400
Co1522     Co  0.53220296  0.03104834  0.76832167     0.73900
C1523       C  0.59771582  0.05552565  0.79646311    -0.06700
C1524       C  0.96608021  0.42522743  0.82635646    -0.06300
N1525       N  0.56876605  0.39915841  0.74807604    -0.25800
N1526       N  0.96843473  0.01668256  0.82606885    -0.46600
H1527       H  0.59736469  0.43593959  0.84307125     0.07100
C1528       C  0.59550728  0.01109640  0.71296992    -0.06700
Cl1529     Cl  0.52993573  0.46508173  0.77077345    -0.49700
C1530       C  0.94795835  0.04056243  0.72165485     0.42800
H1531       H  0.60220177  0.35392589  0.75544673     0.07000
N1532       N  0.59525108  0.05326929  0.73981346    -0.46400
C1533       C  0.74486839  0.03011676  0.95096054     0.16200
C1534       C  0.74212465  0.05436022  0.93333947    -0.32900
C1535       C  0.72042068  0.04500439  0.91535396     0.20600
C1536       C  0.70190517  0.01304246  0.91500050     0.02800
C1537       C  0.70492520  0.98856155  0.93252789    -0.22600
C1538       C  0.72696708  0.99779943  0.95042371     0.11900
S1539       S  0.69420873  0.47248411  0.97251105    -0.06300
C1540       C  0.73624819  0.48308567  0.98157497    -0.09700
C1541       C  0.73389177  0.97744826  0.96884961    -0.26300
S1542       S  0.67658582  0.00703700  0.89177635    -0.03500
C1543       C  0.69167178  0.04773328  0.88220566    -0.17000
C1544       C  0.71480171  0.06490759  0.89657088    -0.15000
H1545       H  0.75642767  0.07943639  0.93360009     0.20400
H1546       H  0.69082030  0.96338922  0.93219734     0.16400
H1547       H  0.72323099  0.95101043  0.97169854     0.18900
H1548       H  0.72687644  0.09065863  0.89345596     0.12300
C1549       C  0.85561354  0.41218265  0.91535554     0.16200
C1550       C  0.85627721  0.43073582  0.93549081    -0.32900
C1551       C  0.82822700  0.42495118  0.95035611     0.20600
C1552       C  0.80046353  0.40196392  0.94535417     0.02800
C1553       C  0.79991123  0.38319164  0.92523573    -0.22600
C1554       C  0.82818921  0.38878072  0.91041848     0.11900
S1555       S  0.88724267  0.41566949  0.89519811    -0.06300
C1556       C  0.86358027  0.38494052  0.87996541    -0.09700
C1557       C  0.83267165  0.37292601  0.89010472    -0.26300
S1558       S  0.76827197  0.39973553  0.96533008    -0.03500
C1559       C  0.79284850  0.42969877  0.98056128    -0.17000
C1560       C  0.82410660  0.44076083  0.97065198    -0.15000
H1561       H  0.87773676  0.44895761  0.93939303     0.20400
H1562       H  0.77835181  0.36513365  0.92127766     0.16400
H1563       H  0.81452336  0.35361467  0.88302982     0.18900
H1564       H  0.84226905  0.46010475  0.97769433     0.12300
C1565       C  0.57194970  0.14813371  0.59390035     0.16200
C1566       C  0.57878652  0.12040183  0.60897419    -0.32900
C1567       C  0.60367209  0.12680161  0.62586641     0.20600
C1568       C  0.62120417  0.15922441  0.62745149     0.02800
C1569       C  0.61401131  0.18703813  0.61261504    -0.22600
C1570       C  0.58886508  0.18082552  0.59594601     0.11900
S1571       S  0.54417120  0.14529044  0.57155042    -0.06300
C1572       C  0.55499266  0.18881208  0.56520900    -0.09700
C1573       C  0.57890933  0.20438881  0.57971217    -0.26300
S1574       S  0.65019338  0.16204522  0.64905180    -0.03500
C1575       C  0.63796014  0.11942179  0.65662706    -0.17000
C1576       C  0.61311629  0.10380709  0.64263038    -0.15000
H1577       H  0.56536253  0.09494096  0.60756499     0.20400
H1578       H  0.62745370  0.21250114  0.61402392     0.16400
H1579       H  0.58965936  0.23103317  0.57785419     0.18900
H1580       H  0.60166201  0.07758519  0.64503260     0.12300
C1581       C  0.99863258  0.29468314  0.59353252     0.16200
C1582       C  0.48798178  0.31929778  0.61071620    -0.32900
C1583       C  0.96575572  0.31256973  0.62597206     0.20600
C1584       C  0.94755914  0.28040795  0.62567888     0.02800
C1585       C  0.95493837  0.25445792  0.60966081    -0.22600
C1586       C  0.98089119  0.26225966  0.59373662     0.11900
S1587       S  0.52677584  0.29546577  0.57457524    -0.06300
C1588       C  0.51130999  0.25552527  0.56432578    -0.09700
C1589       C  0.99119314  0.24046414  0.57670828    -0.26300
S1590       S  0.91734771  0.27535577  0.64650394    -0.03500
C1591       C  0.92975188  0.31666899  0.65627122    -0.17000
C1592       C  0.95570222  0.33355575  0.64361225    -0.15000
H1593       H  0.50546708  0.34213991  0.61243229     0.20400
H1594       H  0.94096591  0.22912286  0.60961385     0.16400
H1595       H  0.98031124  0.21413240  0.57362071     0.18900
H1596       H  0.96739405  0.35921670  0.64751252     0.12300
C1597       C  0.63571166  0.29694511  0.92422787     0.16200
C1598       C  0.63734962  0.27657834  0.94375620    -0.32900
C1599       C  0.60522491  0.26931658  0.95484401     0.20600
C1600       C  0.57306054  0.28204066  0.94691940     0.02800
C1601       C  0.57158789  0.30314995  0.92783784    -0.22600
C1602       C  0.60352670  0.31021512  0.91671060     0.11900
S1603       S  0.67073064  0.30519232  0.90676986    -0.06300
C1604       C  0.64157629  0.32686711  0.88930303    -0.09700
C1605       C  0.60685439  0.32794633  0.89699189    -0.26300
S1606       S  0.53684931  0.26925099  0.96197513    -0.03500
C1607       C  0.56513252  0.24637168  0.97927040    -0.17000
C1608       C  0.60087151  0.24911095  0.97364959    -0.15000
H1609       H  0.66239461  0.26591161  0.94965620     0.20400
H1610       H  0.54637372  0.31286259  0.92155060     0.16400
H1611       H  0.58460528  0.33881315  0.88779671     0.18900
H1612       H  0.62239508  0.23679398  0.98277638     0.12300
C1613       C  0.99821508  0.15424099  0.94497185     0.16200
C1614       C  0.99876240  0.13343926  0.92561820    -0.32900
C1615       C  0.96630727  0.12712233  0.91487854     0.20600
C1616       C  0.93469641  0.14110481  0.92295496     0.02800
C1617       C  0.93404022  0.16127711  0.94260492    -0.22600
C1618       C  0.96651219  0.16746266  0.95341257     0.11900
S1619       S  0.53650872  0.16887182  0.95964954    -0.06300
C1620       C  0.00727215  0.18819933  0.97812302    -0.09700
C1621       C  0.97149717  0.18664989  0.97260225    -0.26300
S1622       S  0.89877996  0.13327249  0.90630163    -0.03500
C1623       C  0.92655306  0.11053551  0.88837518    -0.17000
C1624       C  0.96169947  0.10903748  0.89528007    -0.15000
H1625       H  0.52593430  0.12782000  0.91801078     0.20400
H1626       H  0.90939823  0.17225530  0.94895468     0.16400
H1627       H  0.95034128  0.19897853  0.98211624     0.18900
H1628       H  0.98318174  0.09729282  0.88575635     0.12300
C1629       C  0.84161913  0.50149756  0.59138446     0.16200
C1630       C  0.86761984  0.50543551  0.60788879    -0.32900
C1631       C  0.85635942  0.02808840  0.62765970     0.20600
C1632       C  0.82215945  0.04101267  0.63083879     0.02800
C1633       C  0.79655357  0.03836883  0.61414845    -0.22600
C1634       C  0.80670768  0.02244344  0.59411104     0.11900
S1635       S  0.84869327  0.48420962  0.56544758    -0.06300
C1636       C  0.80427237  0.49129287  0.55996803    -0.09700
C1637       C  0.78525901  0.01682571  0.57618822    -0.26300
S1638       S  0.81500603  0.06023723  0.65604733    -0.03500
C1639       C  0.85851305  0.05069211  0.66260250    -0.17000
C1640       C  0.87735555  0.03326338  0.64600126    -0.15000
H1641       H  0.89486530  0.49719325  0.60499022     0.20400
H1642       H  0.76973634  0.04828296  0.61669639     0.16400
H1643       H  0.75744820  0.02436399  0.57547842     0.18900
H1644       H  0.90511472  0.02571645  0.64706643     0.12300
C1645       C  0.70635037  0.43364172  0.59159327     0.16200
C1646       C  0.68366803  0.43068923  0.61009302    -0.32900
C1647       C  0.69508977  0.40949655  0.62796928     0.20600
C1648       C  0.72743529  0.39179753  0.62729465     0.02800
C1649       C  0.75014461  0.39498636  0.60893410    -0.22600
C1650       C  0.73893933  0.41636619  0.59122534     0.11900
S1651       S  0.69803868  0.45861536  0.56839376    -0.06300
C1652       C  0.73934267  0.44638623  0.55850421    -0.09700
C1653       C  0.75791907  0.42352686  0.57230946    -0.26300
S1654       S  0.73628048  0.36674805  0.65026280    -0.03500
C1655       C  0.69613399  0.38036296  0.66121126    -0.17000
C1656       C  0.67708921  0.40327546  0.64750819    -0.15000
H1657       H  0.65837593  0.44444942  0.61058617     0.20400
H1658       H  0.77560154  0.38148711  0.60851748     0.16400
H1659       H  0.78440568  0.41352750  0.56891940     0.18900
H1660       H  0.65129282  0.41441194  0.65149602     0.12300
C1661       C  0.75086748  0.03337153  0.09606535     0.16200
C1662       C  0.74701707  0.05949500  0.11256261    -0.32900
C1663       C  0.71852931  0.05593843  0.12748857     0.20600
C1664       C  0.69504554  0.02752704  0.12614755     0.02800
C1665       C  0.69909045  0.00121835  0.10981342    -0.22600
C1666       C  0.72746485  0.00484267  0.09485331     0.11900
S1667       S  0.78240246  0.03391126  0.07557471    -0.06300
C1668       C  0.74566465  0.49157120  0.06282373    -0.09700
C1669       C  0.71079368  0.49250767  0.07018108    -0.26300
S1670       S  0.66277008  0.02754799  0.14609899    -0.03500
C1671       C  0.68127776  0.06609234  0.15661043    -0.17000
C1672       C  0.71066633  0.07825289  0.14486574    -0.15000
H1673       H  0.76525841  0.08179672  0.11360747     0.20400
H1674       H  0.68079958  0.97895746  0.10874262     0.16400
H1675       H  0.68895236  0.47842599  0.06242325     0.18900
H1676       H  0.72634025  0.10140405  0.14932301     0.12300
C1677       C  0.57433449  0.15382337  0.45181315     0.16200
C1678       C  0.57839813  0.12881458  0.43467793    -0.32900
C1679       C  0.59830649  0.13902529  0.41600254     0.20600
C1680       C  0.61403321  0.17240351  0.41462963     0.02800
C1681       C  0.60983440  0.19745369  0.43169799    -0.22600
C1682       C  0.58941991  0.18746923  0.45016900     0.11900
S1683       S  0.55064507  0.14692462  0.47567243    -0.06300
C1684       C  0.56036596  0.19014941  0.48316639    -0.09700
C1685       C  0.58144392  0.20845086  0.46810185    -0.26300
S1686       S  0.63750395  0.17952443  0.39076594    -0.03500
C1687       C  0.62544173  0.13733401  0.38227019    -0.17000
C1688       C  0.60456003  0.11884669  0.39739763    -0.15000
H1689       H  0.56627104  0.10266479  0.43575548     0.20400
H1690       H  0.62168265  0.22372649  0.43053394     0.16400
H1691       H  0.59019683  0.23578265  0.47013512     0.18900
H1692       H  0.59457733  0.09203442  0.39494411     0.12300
C1693       C  0.80869465  0.02858394  0.44201277     0.16200
C1694       C  0.80896949  0.04672433  0.42170687    -0.32900
C1695       C  0.84195573  0.05262417  0.41146586     0.20600
C1696       C  0.87335740  0.04061490  0.42084621     0.02800
C1697       C  0.87311256  0.02272581  0.44131813    -0.22600
C1698       C  0.84005220  0.01708279  0.45167867     0.11900
S1699       S  0.77137405  0.01929492  0.45707165    -0.06300
C1700       C  0.80044412  0.50446511  0.47797666    -0.09700
C1701       C  0.83601668  0.50243589  0.47192656    -0.26300
S1702       S  0.91035071  0.04865357  0.40500238    -0.03500
C1703       C  0.88321321  0.06893819  0.38576975    -0.17000
C1704       C  0.84748808  0.06925547  0.39151946    -0.15000
H1705       H  0.78445755  0.05581145  0.41417612     0.20400
H1706       H  0.89839216  0.50988245  0.44717900     0.16400
H1707       H  0.85611063  0.48792570  0.48106816     0.18900
H1708       H  0.82643681  0.07974511  0.38117044     0.12300
C1709       C  0.60185863  0.24956684  0.09360457     0.16200
C1710       C  0.62589814  0.25242438  0.11126277    -0.32900
C1711       C  0.61565316  0.27313427  0.12960216     0.20600
C1712       C  0.58296856  0.29025235  0.13026954     0.02800
C1713       C  0.55881256  0.28701097  0.11279967    -0.22600
C1714       C  0.56901682  0.26634973  0.09452615     0.11900
S1715       S  0.60930726  0.22625064  0.06965930    -0.06300
C1716       C  0.56759393  0.23897491  0.06106596    -0.09700
C1717       C  0.54921376  0.26027422  0.07593193    -0.26300
S1718       S  0.57588887  0.31526578  0.15343821    -0.03500
C1719       C  0.61731689  0.30244083  0.16252475    -0.17000
C1720       C  0.63544005  0.27978141  0.14823496    -0.15000
H1721       H  0.65158542  0.23930207  0.11065883     0.20400
H1722       H  0.53320756  0.30033409  0.11334133     0.16400
H1723       H  0.52263645  0.27060806  0.07325520     0.18900
H1724       H  0.66192293  0.26938556  0.15109725     0.12300
C1725       C  0.97310039  0.18589322  0.09379163     0.16200
C1726       C  0.94962360  0.18434991  0.11186821    -0.32900
C1727       C  0.96096187  0.16608725  0.13087463     0.20600
C1728       C  0.99414372  0.15002493  0.13182344     0.02800
C1729       C  0.51507394  0.14784124  0.11312273    -0.22600
C1730       C  0.00649238  0.17031917  0.09494846     0.11900
S1731       S  0.96431051  0.20638723  0.06910352    -0.06300
C1732       C  0.00625588  0.19428733  0.06048196    -0.09700
C1733       C  0.52317035  0.17144852  0.07532798    -0.26300
S1734       S  0.00213710  0.12730835  0.15577037    -0.03500
C1735       C  0.96041897  0.13977076  0.16472671    -0.17000
C1736       C  0.94161175  0.16068140  0.14987551    -0.15000
H1737       H  0.92356390  0.19652217  0.11107487     0.20400
H1738       H  0.54033088  0.13399978  0.11342159     0.16400
H1739       H  0.54953677  0.16076692  0.07245403     0.18900
H1740       H  0.91478607  0.17029842  0.15250707     0.12300
C1741       C  0.71909683  0.38807748  0.41322461     0.16200
C1742       C  0.74526511  0.39796752  0.42847074    -0.32900
C1743       C  0.73567051  0.42200135  0.44522086     0.20600
C1744       C  0.70144546  0.43554457  0.44685680     0.02800
C1745       C  0.67542299  0.42630869  0.43122738    -0.22600
C1746       C  0.68510131  0.40229475  0.41437136     0.11900
S1747       S  0.72568278  0.35910092  0.39185566    -0.06300
C1748       C  0.68245495  0.36683940  0.38385100    -0.09700
C1749       C  0.66392021  0.39034760  0.39741280    -0.26300
S1750       S  0.69454018  0.46201666  0.46957911    -0.03500
C1751       C  0.73834847  0.45504790  0.47664780    -0.17000
C1752       C  0.75706995  0.43352215  0.46206727    -0.15000
H1753       H  0.77191965  0.38706572  0.42746108     0.20400
H1754       H  0.64870947  0.43699125  0.43232500     0.16400
H1755       H  0.63680271  0.39896269  0.39465864     0.18900
H1756       H  0.78451747  0.42548417  0.46426726     0.12300
C1757       C  0.87736562  0.39016878  0.11647833     0.16200
C1758       C  0.87654993  0.40796831  0.09596671    -0.32900
C1759       C  0.84313453  0.41409826  0.08626948     0.20600
C1760       C  0.81200910  0.40308250  0.09657260     0.02800
C1761       C  0.81290782  0.38453663  0.11670083    -0.22600
C1762       C  0.84619809  0.37827493  0.12631589     0.11900
S1763       S  0.91463516  0.38294344  0.13215115    -0.06300
C1764       C  0.88785428  0.36319558  0.15193013    -0.09700
C1765       C  0.85212503  0.36222259  0.14635315    -0.26300
S1766       S  0.77407201  0.41408005  0.08273480    -0.03500
C1767       C  0.80025738  0.43342601  0.06259536    -0.17000
C1768       C  0.83654902  0.43120204  0.06655454    -0.15000
H1769       H  0.90079514  0.41727561  0.08814376     0.20400
H1770       H  0.78858929  0.37588092  0.12474423     0.16400
H1771       H  0.83119571  0.35219791  0.15705458     0.18900
H1772       H  0.85692143  0.44158861  0.05558876     0.12300
C1773       C  0.96909802  0.26654358  0.41089249     0.16200
C1774       C  0.97274393  0.24305811  0.42875112    -0.32900
C1775       C  0.99177454  0.25488620  0.44726452     0.20600
C1776       C  0.50107362  0.28898928  0.44996794     0.02800
C1777       C  0.49698999  0.31293743  0.43222272    -0.22600
C1778       C  0.98422384  0.30026405  0.41140344     0.11900
S1779       S  0.94575317  0.25726748  0.38741075    -0.06300
C1780       C  0.95642921  0.29918042  0.37787304    -0.09700
C1781       C  0.97734533  0.31909501  0.39229283    -0.26300
S1782       S  0.52436340  0.29733018  0.47380201    -0.03500
C1783       C  0.51454049  0.25454853  0.48229074    -0.17000
C1784       C  0.99806870  0.23566419  0.46611349    -0.15000
H1785       H  0.96100555  0.21667297  0.42829174     0.20400
H1786       H  0.50885259  0.33924640  0.43272345     0.16400
H1787       H  0.98619592  0.34612586  0.38921974     0.18900
H1788       H  0.98894273  0.20859483  0.46877619     0.12300
C1789       C  0.94221620  0.81014099  0.35679448     0.80400
N1790       N  0.91430540  0.79383141  0.34677510    -0.77900
C1791       C  0.90119977  0.80643125  0.32737773     0.82900
N1792       N  0.91631780  0.83542950  0.31780962    -0.77800
C1793       C  0.94449038  0.85178199  0.32752633     0.83000
N1794       N  0.95732426  0.83924571  0.34711528    -0.79500
C1795       C  0.90629082  0.84993429  0.17588063     0.80400
N1796       N  0.88606695  0.82563615  0.18702204    -0.77900
C1797       C  0.89085858  0.82051763  0.20914993     0.82900
N1798       N  0.91529096  0.84035337  0.22017109    -0.77800
C1799       C  0.93640961  0.86363388  0.20908811     0.83000
N1800       N  0.93165119  0.86855594  0.18700907    -0.79500
C1801       C  0.66787266  0.84918970  0.36497397     0.80400
N1802       N  0.64242986  0.86826339  0.35426036    -0.77900
C1803       C  0.63730206  0.86382494  0.33212841     0.82900
N1804       N  0.65812918  0.84063242  0.32060764    -0.77800
C1805       C  0.68250782  0.82035701  0.33136815     0.83000
N1806       N  0.68753803  0.82499596  0.35345830    -0.79500
C1807       C  0.94061641  0.62276816  0.18253567     0.80400
N1808       N  0.91151900  0.63823657  0.19177120    -0.77900
C1809       C  0.89863528  0.62632785  0.21152306     0.82900
N1810       N  0.91474270  0.59851017  0.22196597    -0.77800
C1811       C  0.94398217  0.58310525  0.21274020     0.83000
N1812       N  0.95678885  0.59547879  0.19318436    -0.79500
C1813       C  0.96055957  0.88296245  0.31675267     0.42700
N1814       N  0.49343498  0.92896487  0.31096942     0.01600
C1815       C  0.49355146  0.53534188  0.21552112    -0.06300
H1816       H  0.50555255  0.90435168  0.19921718     0.07100
C1817       C  0.62417064  0.90487860  0.24598665    -0.06700
Co1818     Co  0.97062886  0.96745819  0.26931980     0.74200
N1819       N  0.49845524  0.93269088  0.23016551    -0.25800
Co1820     Co  0.53884996  0.97077330  0.23167147     0.74100
C1821       C  0.61222422  0.88810632  0.22556032     0.42800
N1822       N  0.59806911  0.93003006  0.29836585     0.01200
N1823       N  0.57782338  0.93171535  0.23299968     0.01300
N1824       N  0.95008889  0.53413842  0.24090889    -0.46700
H1825       H  0.92599965  0.89392048  0.28606811     0.07000
N1826       N  0.97374838  0.92898267  0.24442352     0.01600
N1827       N  0.57672260  0.50844637  0.23104298     0.01300
C1828       C  0.61258310  0.55115474  0.22350322     0.42900
N1829       N  0.57294698  0.92986287  0.31369875    -0.25300
C1830       C  0.94387238  0.52924076  0.29668713    -0.06200
N1831       N  0.48811083  0.90192729  0.32472705    -0.46400
N1832       N  0.58444124  0.53264016  0.21573318    -0.46600
C1833       C  0.95258497  0.54401485  0.31826237     0.42700
N1834       N  0.97319580  0.50780202  0.24380550     0.01600
N1835       N  0.56938660  0.50751649  0.31205361    -0.25300
N1836       N  0.97063392  0.92788069  0.29373650    -0.25800
N1837       N  0.59507434  0.50833623  0.29707202     0.01200
H1838       H  0.55822519  0.53990990  0.34093487     0.07100
H1839       H  0.64524071  0.54115942  0.25504170     0.07100
N1840       N  0.49781338  0.50766663  0.22919968    -0.25900
N1841       N  0.60126694  0.93166760  0.24926518    -0.25500
N1842       N  0.48961752  0.50512961  0.31018386     0.01600
C1843       C  0.95993134  0.88746745  0.22155362     0.43000
C1844       C  0.58041805  0.90413594  0.32846958    -0.06700
N1845       N  0.59912191  0.50908609  0.24783387    -0.25500
H1846       H  0.64667361  0.89846497  0.25636674     0.07100
N1847       N  0.94986402  0.90386826  0.24046516    -0.46700
H1848       H  0.56553179  0.89850429  0.34342015     0.07100
C1849       C  0.60679674  0.55198480  0.31878114     0.42800
C1850       C  0.94835028  0.90039679  0.29657036    -0.06200
Co1851     Co  0.53257738  0.96823033  0.31353486     0.73800
N1852       N  0.62263965  0.90536219  0.30170161    -0.46400
C1853       C  0.96206255  0.55297658  0.22331759     0.43100
N1854       N  0.48025068  0.52790770  0.32604375    -0.46400
Co1855     Co  0.60027589  0.96981565  0.27438072     0.73900
C1856       C  0.62248772  0.53552534  0.24468850    -0.06700
C1857       C  0.49072352  0.90861363  0.21437117    -0.06300
N1858       N  0.96882079  0.50459848  0.29301827    -0.25800
N1859       N  0.58351903  0.90609981  0.21828172    -0.46600
H1860       H  0.51075989  0.54218661  0.20177157     0.07100
C1861       C  0.57457241  0.53417519  0.32659218    -0.06700
Cl1862     Cl  0.53573423  0.96964187  0.27255711    -0.49700
C1863       C  0.61308062  0.88761955  0.32020056     0.42800
H1864       H  0.92094424  0.53414175  0.28633426     0.07000
N1865       N  0.61800165  0.53454739  0.30048459    -0.46400
C1866       C  0.63327338  0.82007428  0.18318514     0.80400
N1867       N  0.61694167  0.84727480  0.19406343    -0.77900
C1868       C  0.62911129  0.85832184  0.21405003     0.82900
N1869       N  0.65743359  0.84191045  0.22332385    -0.77800
C1870       C  0.67370678  0.81445814  0.21279037     0.83000
N1871       N  0.66176980  0.80359776  0.19259773    -0.79500
C1872       C  0.89656841  0.58065905  0.36341491     0.80400
N1873       N  0.92257602  0.56182338  0.35284174    -0.77900
C1874       C  0.92930492  0.56771811  0.33097487     0.82900
N1875       N  0.90979053  0.59202860  0.31973708    -0.77800
C1876       C  0.88486441  0.61182245  0.33026687     0.83000
N1877       N  0.87785912  0.60575416  0.35203543    -0.79500
C1878       C  0.63258696  0.62406526  0.35766349     0.80400
N1879       N  0.65964402  0.63950045  0.34629597    -0.77900
C1880       C  0.67005049  0.62644768  0.32637527     0.82900
N1881       N  0.65293004  0.59790322  0.31757442    -0.77800
C1882       C  0.62539410  0.58252234  0.32867058     0.83000
N1883       N  0.61539748  0.59548390  0.34883310    -0.79500
C1884       C  0.66537748  0.58539090  0.17641598     0.80400
N1885       N  0.64016552  0.56754120  0.18819128    -0.77900
C1886       C  0.63555288  0.57423452  0.21013089     0.82900
N1887       N  0.65637542  0.59873952  0.22032593    -0.77800
C1888       C  0.68050080  0.61782662  0.20851993     0.83000
N1889       N  0.68549705  0.61064830  0.18664517    -0.79500
C1890       C  0.86615750  0.79823189  0.22195906     0.42700
N1891       N  0.82431603  0.76153549  0.22984459     0.01600
C1892       C  0.72250656  0.76351851  0.32651816    -0.06300
H1893       H  0.85798037  0.74018606  0.33882672     0.07100
C1894       C  0.84714142  0.62629950  0.29564548    -0.06700
Co1895     Co  0.78651776  0.78310287  0.27152994     0.74200
N1896       N  0.82476820  0.75326026  0.31083849    -0.25800
Co1897     Co  0.78484810  0.71484094  0.31030314     0.74100
C1898       C  0.86210829  0.63530327  0.31714046     0.42800
N1899       N  0.82369994  0.65586022  0.24278655     0.01200
N1900       N  0.82224585  0.67374911  0.30895374     0.01300
N1901       N  0.72343479  0.80640688  0.30016395    -0.46700
H1902       H  0.85656638  0.83060809  0.25378642     0.07000
N1903       N  0.82562926  0.77932264  0.29610587     0.01600
N1904       N  0.74496781  0.67640088  0.30818908     0.01300
C1905       C  0.70019436  0.64284648  0.31481793     0.42900
N1906       N  0.82376452  0.68179927  0.22796187    -0.25300
C1907       C  0.72125346  0.80835672  0.24396420    -0.06200
N1908       N  0.84803682  0.76965920  0.21428339    -0.46400
N1909       N  0.71865396  0.67115798  0.32245850    -0.46600
C1910       C  0.70395991  0.79704226  0.22353496     0.42700
N1911       N  0.74759912  0.78147502  0.29619696     0.01600
N1912       N  0.74667779  0.68174583  0.22752837    -0.25300
N1913       N  0.82503072  0.78397648  0.24672263    -0.25800
N1914       N  0.74593003  0.65658396  0.24280740     0.01200
H1915       H  0.71691149  0.68925953  0.19725433     0.07100
H1916       H  0.71104853  0.60824753  0.28400208     0.07100
N1917       N  0.74753314  0.75600818  0.31128542    -0.25900
N1918       N  0.82240241  0.65124778  0.29211524    -0.25500
N1919       N  0.74695868  0.76156179  0.23041214     0.01600
C1920       C  0.87037564  0.78911428  0.31712505     0.43000
C1921       C  0.85067175  0.67655431  0.21374905    -0.06700
N1922       N  0.74501989  0.65297291  0.29181208    -0.25500
H1923       H  0.85187440  0.60314020  0.28534646     0.07100
N1924       N  0.85257408  0.80152160  0.29930788    -0.46700
H1925       H  0.85717000  0.69322814  0.19969711     0.07100
C1926       C  0.70470432  0.64174493  0.22026924     0.42800
C1927       C  0.85095775  0.80780661  0.24336372    -0.06200
Co1928     Co  0.78538569  0.72170477  0.22843712     0.73800
N1929       N  0.84973748  0.63257859  0.23953569    -0.46400
C1930       C  0.70622013  0.79661685  0.31884481     0.43100
N1931       N  0.72123089  0.76793880  0.21595465    -0.46400
Co1932     Co  0.78433745  0.65354368  0.26732487     0.73900
C1933       C  0.71755128  0.63060060  0.29457881    -0.06700
C1934       C  0.85203492  0.75724510  0.32487621    -0.06300
N1935       N  0.74763522  0.78488695  0.24686143    -0.25800
N1936       N  0.84510179  0.66463459  0.32468626    -0.46600
H1937       H  0.71713114  0.74830005  0.34135966     0.07100
C1938       C  0.72171210  0.67436731  0.21227947    -0.06700
Cl1939     Cl  0.78529313  0.71831601  0.26940045    -0.49700
C1940       C  0.86775791  0.64404663  0.22150723     0.42800
H1941       H  0.71547269  0.83093157  0.25455065     0.07000
N1942       N  0.72131611  0.63217576  0.23907026    -0.46400
C1943       C  0.78358139  0.98618152  0.49821143     0.02500
C1944       C  0.75173657  0.96600824  0.49927299     0.02500
C1945       C  0.73703223  0.95729398  0.51996479    -0.18000
C1946       C  0.75397528  0.96701378  0.53969513     0.02500
C1947       C  0.78586764  0.98692928  0.53882728     0.02500
C1948       C  0.80042612  0.99608093  0.51812075    -0.18000
H1949       H  0.82636522  0.50979542  0.51931348     0.04500
H1950       H  0.71318831  0.94102231  0.52071751     0.04500
C1951       C  0.52623274  0.70756389  0.03931568     0.02500
C1952       C  0.55603723  0.73048816  0.03902119     0.02500
C1953       C  0.57032940  0.74134914  0.01866640    -0.18000
C1954       C  0.55523904  0.73015228  0.99855506     0.02500
C1955       C  0.52633543  0.70598996  0.99882757     0.02500
C1956       C  0.00911386  0.69663271  0.01859372    -0.18000
H1957       H  0.98616822  0.67911211  0.01879315     0.04500
H1958       H  0.59221853  0.76017316  0.01851433     0.04500
C1959       C  0.55448482  0.70831922  0.50268162     0.02500
C1960       C  0.53121089  0.73789704  0.50185613     0.02500
C1961       C  0.51782109  0.75213069  0.52173397    -0.18000
C1962       C  0.52716141  0.73733880  0.54235439     0.02500
C1963       C  0.55087670  0.70811097  0.54310215     0.02500
C1964       C  0.56408774  0.69387337  0.52322655    -0.18000
H1965       H  0.58199567  0.67121295  0.52375958     0.04500
H1966       H  0.00345968  0.77608092  0.52084505     0.04500
C1967       C  0.79422068  0.94686408  0.04359361     0.02500
C1968       C  0.77494442  0.97912027  0.04425097     0.02500
C1969       C  0.76355585  0.99487475  0.02435094    -0.18000
C1970       C  0.77079956  0.97876398  0.00380866     0.02500
C1971       C  0.79071056  0.94679710  0.00323712     0.02500
C1972       C  0.80174969  0.93094666  0.02309521    -0.18000
H1973       H  0.81744143  0.90668036  0.02256763     0.04500
H1974       H  0.71866527  0.50234180  0.02268827     0.04500
C1975       C  0.87585945  0.86927537  0.85827982     0.80400
N1976       N  0.90290473  0.88628896  0.84780985    -0.77900
C1977       C  0.91543379  0.87415772  0.82813602     0.82900
N1978       N  0.90057263  0.84502297  0.81868776    -0.77800
C1979       C  0.87315616  0.82805987  0.82885836     0.83000
N1980       N  0.86088989  0.84002529  0.84877060    -0.79500
C1981       C  0.91784306  0.60193415  0.86538150     0.80400
N1982       N  0.89130484  0.61979220  0.85475858    -0.77900
C1983       C  0.88444599  0.61297423  0.83303205     0.82900
N1984       N  0.90430332  0.58868895  0.82197392    -0.77800
C1985       C  0.92984638  0.56988409  0.83246262     0.83000
N1986       N  0.93710775  0.57691686  0.85411698    -0.79500
C1987       C  0.68285138  0.56023600  0.85760209     0.80400
N1988       N  0.70040533  0.58742978  0.84763648    -0.77900
C1989       C  0.68962221  0.59991898  0.82771704     0.82900
N1990       N  0.66126219  0.58490902  0.81751814    -0.77800
C1991       C  0.64385199  0.55732938  0.82724863     0.83000
N1992       N  0.65449373  0.54513398  0.84737043    -0.79500
C1993       C  0.65140963  0.83602471  0.86422055     0.80400
N1994       N  0.67603987  0.81646117  0.85308225    -0.77900
C1995       C  0.68016146  0.82038799  0.83084817     0.81300
N1996       N  0.65943705  0.84399646  0.81970805    -0.77800
C1997       C  0.63597167  0.86488807  0.83095414     0.83000
N1998       N  0.63154475  0.86035417  0.85310365    -0.79500
C1999       C  0.64840045  0.59907068  0.67687747     0.80400
N2000       N  0.67404218  0.61675635  0.68838355    -0.77900
C2001       C  0.67940706  0.60969448  0.71022226     0.82900
N2002       N  0.65881538  0.58505832  0.72058265    -0.77800
C2003       C  0.63425637  0.56614815  0.70907058     0.83000
N2004       N  0.62864639  0.57362831  0.68730348    -0.79500
C2005       C  0.87527351  0.55935961  0.68317266     0.80400
N2006       N  0.90446989  0.54387347  0.69221214    -0.77900
C2007       C  0.91816393  0.55659116  0.71153789     0.82900
N2008       N  0.90289247  0.58523870  0.72165668    -0.77800
C2009       C  0.87373800  0.60079716  0.71261696     0.83000
N2010       N  0.85996333  0.58756780  0.69354192    -0.79500
C2011       C  0.85692577  0.79726540  0.81801058     0.42700
N2012       N  0.82230523  0.75381115  0.81065953     0.01600
C2013       C  0.82391943  0.64863764  0.71570609    -0.06300
H2014       H  0.81074926  0.78239456  0.69979717     0.07100
C2015       C  0.69299014  0.77915439  0.74441290    -0.06700
Co2016     Co  0.84578023  0.71425195  0.76982845     0.74200
N2017       N  0.81866304  0.75225161  0.72987072    -0.25800
Co2018     Co  0.77894239  0.71363913  0.73030109     0.74100
C2019       C  0.70523162  0.79613643  0.72406219     0.42800
N2020       N  0.71817494  0.75327746  0.79689410     0.01200
N2021       N  0.73958953  0.75248138  0.73149083     0.01300
N2022       N  0.86756216  0.64892704  0.74156184    -0.46700
H2023       H  0.89186104  0.78613580  0.78738419     0.07000
N2024       N  0.84359004  0.75304914  0.74521495     0.01600
N2025       N  0.73904758  0.67480314  0.73149505     0.01300
C2026       C  0.70248244  0.63281818  0.72357402     0.42900
N2027       N  0.74302982  0.75306523  0.81229569    -0.25300
C2028       C  0.87090460  0.65093821  0.79852719    -0.06200
N2029       N  0.82788983  0.77964846  0.82525084    -0.46400
N2030       N  0.73129093  0.65075794  0.71606330    -0.46600
C2031       C  0.86130915  0.63622820  0.82002055     0.42700
N2032       N  0.84412233  0.67482713  0.74510959     0.01600
N2033       N  0.74436509  0.67553083  0.81224602    -0.25300
N2034       N  0.84605477  0.75340741  0.79447156    -0.25800
N2035       N  0.71898267  0.67510705  0.79716146     0.01200
H2036       H  0.75591508  0.64172053  0.84026881     0.07100
H2037       H  0.66910950  0.64351595  0.75485007     0.07100
N2038       N  0.81846894  0.67508577  0.73019355    -0.25900
N2039       N  0.71587749  0.75238524  0.74767967    -0.25500
N2040       N  0.82369826  0.67659933  0.81141609     0.01600
C2041       C  0.85774768  0.79501562  0.72283785     0.43000
C2042       C  0.73589252  0.77897296  0.82702153    -0.06700
N2043       N  0.71605722  0.67466972  0.74806899    -0.25500
H2044       H  0.67029159  0.78544484  0.75475060     0.07100
N2045       N  0.86767772  0.77809555  0.74154177    -0.46700
H2046       H  0.75082470  0.78453135  0.84190800     0.07100
C2047       C  0.70793663  0.63022387  0.81775900     0.42800
C2048       C  0.86905553  0.78011059  0.79768365    -0.06200
Co2049     Co  0.78328127  0.71476284  0.81217548     0.73800
N2050       N  0.69400260  0.77844345  0.80018736    -0.46400
C2051       C  0.85626304  0.63135547  0.72329113     0.43100
N2052       N  0.83215865  0.65370865  0.82734934    -0.46400
Co2053     Co  0.71656591  0.71385694  0.77252248     0.73900
C2054       C  0.69228509  0.64869596  0.74468761    -0.06700
C2055       C  0.82563083  0.77759078  0.71480347    -0.06300
N2056       N  0.84652002  0.67603848  0.79472834    -0.25800
N2057       N  0.73413416  0.77824041  0.71684305    -0.46600
H2058       H  0.80761335  0.64276699  0.70142146     0.07100
C2059       C  0.73951889  0.64811475  0.82612805    -0.06700
Cl2060     Cl  0.78117545  0.71408668  0.77121205    -0.49700
C2061       C  0.70373526  0.79608637  0.81870297     0.42800
H2062       H  0.89418912  0.64587118  0.78842801     0.07000
N2063       N  0.69645475  0.64834402  0.79988154    -0.46400
C2064       C  0.91374844  0.82799957  0.67702224     0.80400
N2065       N  0.88822209  0.81011606  0.68845580    -0.77900
C2066       C  0.88181027  0.81764358  0.71006081     0.82900
N2067       N  0.90166207  0.84256238  0.72050638    -0.77800
C2068       C  0.92641345  0.86157554  0.70915935     0.83000
N2069       N  0.93280094  0.85404438  0.68739697    -0.79500
C2070       C  0.68419663  0.86626682  0.68281792     0.80400
N2071       N  0.70042018  0.83818829  0.69290699    -0.77900
C2072       C  0.68874915  0.82664889  0.71301651     0.82900
N2073       N  0.66113343  0.84333713  0.72305540    -0.77800
C2074       C  0.64509893  0.87150435  0.71327070     0.83000
N2075       N  0.65652516  0.88288199  0.69310404    -0.79500
C2076       C  0.95032287  0.88467413  0.72181890     0.42700
N2077       N  0.99117731  0.92214134  0.72995671     0.01600
C2078       C  0.59565127  0.92172464  0.82696153    -0.06300
H2079       H  0.95703742  0.94091456  0.83952591     0.07100
C2080       C  0.96702637  0.55593747  0.79731905    -0.06700
Co2081     Co  0.53191731  0.90157644  0.77239044     0.74200
N2082       N  0.98986921  0.92900244  0.81107121    -0.25800
Co2083     Co  0.53230872  0.96964426  0.81119812     0.74100
C2084       C  0.95293674  0.54683946  0.81910930     0.42800
N2085       N  0.99164814  0.52701763  0.74377674     0.01200
N2086       N  0.99314359  0.50905685  0.81027924     0.01300
N2087       N  0.59510711  0.87925492  0.80029681    -0.46700
H2088       H  0.95977741  0.85240355  0.75359012     0.07000
N2089       N  0.98930106  0.90324142  0.79612406     0.01600
N2090       N  0.56924738  0.50727501  0.80951579     0.01300
C2091       C  0.61347986  0.54111524  0.81616321     0.42900
N2092       N  0.99259047  0.50120093  0.72885232    -0.25300
C2093       C  0.59794567  0.87731610  0.74489216    -0.06200
N2094       N  0.96805578  0.91355982  0.71420710    -0.46400
N2095       N  0.59525295  0.51275398  0.82384795    -0.46600
C2096       C  0.61530041  0.88896525  0.72451662     0.42700
N2097       N  0.57058655  0.90385797  0.79674088     0.01600
N2098       N  0.56830599  0.50196807  0.72860267    -0.25300
N2099       N  0.99045377  0.89963423  0.74678072    -0.25800
N2100       N  0.56897114  0.52715581  0.74388983     0.01200
H2101       H  0.59809954  0.49440633  0.69821187     0.07100
H2102       H  0.60301672  0.57537160  0.78521301     0.07100
N2103       N  0.57036972  0.92912786  0.81196504    -0.25900
N2104       N  0.99214430  0.53146041  0.79341374    -0.25500
N2105       N  0.57157843  0.92361674  0.73133551     0.01600
C2106       C  0.94519220  0.89233074  0.81744066     0.43000
C2107       C  0.96635690  0.50634033  0.71420222    -0.06700
N2108       N  0.56926985  0.53054168  0.79307039    -0.25500
H2109       H  0.96174789  0.57910321  0.78717010     0.07100
N2110       N  0.96288275  0.88045203  0.79938244    -0.46700
H2111       H  0.96091393  0.48989713  0.69987632     0.07100
C2112       C  0.61017328  0.54213623  0.72108969     0.42800
C2113       C  0.96507704  0.87540651  0.74328204    -0.06200
Co2114     Co  0.53258918  0.96273424  0.72931043     0.73800
N2115       N  0.96570674  0.55017328  0.74012135    -0.46400
C2116       C  0.61231593  0.88894219  0.81887974     0.43100
N2117       N  0.59757402  0.91768937  0.71691224    -0.46400
Co2118     Co  0.53028927  0.52980577  0.76861599     0.73900
C2119       C  0.59649723  0.55307683  0.79582811    -0.06700
C2120       C  0.96294492  0.92433602  0.82530091    -0.06300
N2121       N  0.57107819  0.90029725  0.74775109    -0.25800
N2122       N  0.97062375  0.51783356  0.82637503    -0.46600
H2123       H  0.60096273  0.93676945  0.84188199     0.07100
C2124       C  0.59322818  0.50939625  0.71323083    -0.06700
Cl2125     Cl  0.53221684  0.96629487  0.77029047    -0.49700
C2126       C  0.94869622  0.53875862  0.72175470     0.42800
H2127       H  0.60399190  0.85483804  0.75545312     0.07000
N2128       N  0.59349806  0.55167979  0.73999108    -0.46400
C2129       C  0.70311960  0.49665859  0.94910753     0.16200
C2130       C  0.68010922  0.50047112  0.93099287    -0.32900
C2131       C  0.69226751  0.52054099  0.91284972     0.20600
C2132       C  0.72552707  0.53654956  0.91295572     0.02800
C2133       C  0.74841214  0.53273177  0.93096664    -0.22600
C2134       C  0.73655910  0.51228430  0.94886721     0.11900
S2135       S  0.76992710  0.03661576  0.97424723    -0.06300
C2136       C  0.75675173  0.99508649  0.98321248    -0.09700
C2137       C  0.75564592  0.50458195  0.96744233    -0.26300
S2138       S  0.73553119  0.56008871  0.88969604    -0.03500
C2139       C  0.69469420  0.54792534  0.87941785    -0.17000
C2140       C  0.67439926  0.52682727  0.89346301    -0.15000
H2141       H  0.65411183  0.48800843  0.93092669     0.20400
H2142       H  0.77458131  0.54488337  0.93092148     0.16400
H2143       H  0.78260626  0.51353212  0.97048741     0.18900
H2144       H  0.64799098  0.51696771  0.88978390     0.12300
C2145       C  0.85107000  0.91718510  0.91208387     0.16200
C2146       C  0.84689211  0.94171312  0.92933820    -0.32900
C2147       C  0.82860887  0.93035931  0.94826287     0.20600
C2148       C  0.81523242  0.89601759  0.95012880     0.02800
C2149       C  0.81923050  0.87145486  0.93274782    -0.22600
C2150       C  0.83729411  0.88294893  0.91364683     0.11900
S2151       S  0.87302490  0.92589046  0.88800383    -0.06300
C2152       C  0.86324010  0.88308936  0.87968235    -0.09700
C2153       C  0.84395804  0.86323241  0.89492348    -0.26300
S2154       S  0.79406394  0.88765132  0.97469774    -0.03500
C2155       C  0.80267624  0.93114422  0.98209641    -0.17000
C2156       C  0.82161227  0.95056066  0.96657016    -0.15000
H2157       H  0.85743239  0.96852321  0.92806281     0.20400
H2158       H  0.80869907  0.84465449  0.93403524     0.16400
H2159       H  0.83587488  0.83576592  0.89260124     0.18900
H2160       H  0.82967693  0.97810309  0.96858125     0.12300
C2161       C  0.56971128  0.65482158  0.59630128     0.16200
C2162       C  0.56868936  0.63214907  0.61482518    -0.32900
C2163       C  0.60026410  0.62746262  0.62689267     0.20600
C2164       C  0.63146159  0.64457394  0.62078787     0.02800
C2165       C  0.63266943  0.66659812  0.60201110    -0.22600
C2166       C  0.60113160  0.67134775  0.58999370     0.11900
S2167       S  0.53417119  0.66477579  0.57972807    -0.06300
C2168       C  0.56206358  0.69126477  0.56412479    -0.09700
C2169       C  0.59695080  0.69200633  0.57142293    -0.26300
S2170       S  0.66604414  0.63799303  0.63865199    -0.03500
C2171       C  0.63834032  0.61167829  0.65453707    -0.17000
C2172       C  0.60420814  0.60809202  0.64605873    -0.15000
H2173       H  0.54419946  0.61921246  0.61984529     0.20400
H2174       H  0.65700244  0.68006881  0.59723137     0.16400
H2175       H  0.61818230  0.70669846  0.56338660     0.18900
H2176       H  0.58279554  0.59380442  0.65418517     0.12300
C2177       C  0.98814525  0.79236629  0.59031352     0.16200
C2178       C  0.50062074  0.80602083  0.61562793    -0.32900
C2179       C  0.95642082  0.81038045  0.62310917     0.20600
C2180       C  0.94384452  0.77585814  0.62572255     0.02800
C2181       C  0.95362372  0.74871035  0.61095181    -0.22600
C2182       C  0.97634711  0.75768118  0.59338533     0.11900
S2183       S  0.53873058  0.77781253  0.58065044    -0.06300
C2184       C  0.51265729  0.75361822  0.56273153    -0.09700
C2185       C  0.98922313  0.73485414  0.57752460    -0.26300
S2186       S  0.91795858  0.76975784  0.64860437    -0.03500
C2187       C  0.92505571  0.81389523  0.65530250    -0.17000
C2188       C  0.94585961  0.83237895  0.64015453    -0.15000
H2189       H  0.52464369  0.81805581  0.62217913     0.20400
H2190       H  0.94433573  0.72156423  0.61326445     0.16400
H2191       H  0.98278586  0.70670573  0.57661142     0.18900
H2192       H  0.95374572  0.86005661  0.64188845     0.12300
C2193       C  0.63639389  0.79766283  0.92221464     0.16200
C2194       C  0.63854829  0.77837239  0.94206693    -0.32900
C2195       C  0.60664272  0.77053386  0.95313044     0.20600
C2196       C  0.57409011  0.78170650  0.94491600     0.02800
C2197       C  0.57202992  0.80183164  0.92544158    -0.22600
C2198       C  0.60385615  0.80945031  0.91431630     0.11900
S2199       S  0.67141488  0.80620806  0.90491214    -0.06300
C2200       C  0.64187202  0.82617352  0.88702527    -0.09700
C2201       C  0.60694052  0.82640780  0.89434544    -0.26300
S2202       S  0.53832298  0.76830747  0.96018196    -0.03500
C2203       C  0.56746397  0.74730640  0.97786115    -0.17000
C2204       C  0.60302090  0.75108504  0.97222496    -0.15000
H2205       H  0.66389900  0.76889577  0.94825426     0.20400
H2206       H  0.54657039  0.81036910  0.91889979     0.16400
H2207       H  0.58457915  0.83618019  0.88479686     0.18900
H2208       H  0.62498004  0.74004799  0.98158914     0.12300
C2209       C  0.00157696  0.65576696  0.94448765     0.16200
C2210       C  0.00169585  0.63463606  0.92526875    -0.32900
C2211       C  0.96923155  0.62946941  0.91429152     0.20600
C2212       C  0.93804577  0.64487206  0.92199843     0.02800
C2213       C  0.93778287  0.66534683  0.94151720    -0.22600
C2214       C  0.97022853  0.67035011  0.95256884     0.11900
S2215       S  0.53958626  0.66487715  0.96074229    -0.06300
C2216       C  0.01112306  0.68961002  0.97760305    -0.09700
C2217       C  0.97548796  0.68949416  0.97171928    -0.26300
S2218       S  0.90216077  0.63814468  0.90513133    -0.03500
C2219       C  0.92933513  0.61391044  0.88761789    -0.17000
C2220       C  0.96426933  0.61116876  0.89481020    -0.15000
H2221       H  0.52707684  0.62250044  0.91971336     0.20400
H2222       H  0.91346754  0.67738430  0.94760718     0.16400
H2223       H  0.95460925  0.70276253  0.98097899     0.18900
H2224       H  0.98541958  0.59822013  0.88560718     0.12300
C2225       C  0.84092064  0.00977901  0.59069044     0.16200
C2226       C  0.86661226  0.01233611  0.60747381    -0.32900
C2227       C  0.85718572  0.52102489  0.62810649     0.20600
C2228       C  0.82243806  0.53210334  0.63166102     0.02800
C2229       C  0.79647106  0.52769074  0.61534878    -0.22600
C2230       C  0.80690514  0.51235651  0.59519993     0.11900
S2231       S  0.84748927  0.99080768  0.56517388    -0.06300
C2232       C  0.80346517  0.99937075  0.55937483    -0.09700
C2233       C  0.78553026  0.50681911  0.57725968    -0.26300
S2234       S  0.81525529  0.55227768  0.65659383    -0.03500
C2235       C  0.85950447  0.54568341  0.66252766    -0.17000
C2236       C  0.87859360  0.52836315  0.64597445    -0.15000
H2237       H  0.89338272  0.00234737  0.60494234     0.20400
H2238       H  0.76931250  0.53643655  0.61811137     0.16400
H2239       H  0.75757875  0.51383431  0.57669172     0.18900
H2240       H  0.90680049  0.52260464  0.64667212     0.12300
C2241       C  0.70740132  0.93821924  0.59364525     0.16200
C2242       C  0.68454690  0.93336378  0.61182448    -0.32900
C2243       C  0.69578499  0.91037061  0.62878761     0.20600
C2244       C  0.72809741  0.89266064  0.62759859     0.02800
C2245       C  0.75106923  0.89779131  0.60955668    -0.22600
C2246       C  0.74005016  0.92107152  0.59274964     0.11900
S2247       S  0.69870804  0.96470945  0.57121504    -0.06300
C2248       C  0.73981765  0.95305041  0.56085903    -0.09700
C2249       C  0.75884300  0.92966860  0.57403737    -0.26300
S2250       S  0.73668266  0.86555607  0.64969158    -0.03500
C2251       C  0.69665144  0.87879076  0.66095883    -0.17000
C2252       C  0.67768148  0.90263730  0.64795851    -0.15000
H2253       H  0.65918980  0.94696329  0.61274012     0.20400
H2254       H  0.77649651  0.88429214  0.60868190     0.16400
H2255       H  0.78505137  0.91948998  0.57004570     0.18900
H2256       H  0.65203402  0.91378721  0.65232094     0.12300
C2257       C  0.73990012  0.52858470  0.09476494     0.16200
C2258       C  0.74222274  0.55094825  0.11334053    -0.32900
C2259       C  0.71111632  0.55672257  0.12572660     0.20600
C2260       C  0.67911713  0.54101074  0.11984695     0.02800
C2261       C  0.67661469  0.51937745  0.10097519    -0.22600
C2262       C  0.70771054  0.51347174  0.08867102     0.11900
S2263       S  0.77483831  0.51695417  0.07812543    -0.06300
C2264       C  0.76381152  0.99531689  0.06541164    -0.09700
C2265       C  0.73499689  0.98272746  0.07737360    -0.26300
S2266       S  0.64525967  0.54842669  0.13816425    -0.03500
C2267       C  0.67438701  0.57321831  0.15387978    -0.17000
C2268       C  0.70842159  0.57573213  0.14508439    -0.15000
H2269       H  0.76735616  0.56265799  0.11822948     0.20400
H2270       H  0.65168935  0.50689559  0.09641315     0.16400
H2271       H  0.71961235  0.95934623  0.07297041     0.18900
H2272       H  0.73057500  0.58886957  0.15313193     0.12300
C2273       C  0.58130176  0.65461850  0.45120515     0.16200
C2274       C  0.58478646  0.62904961  0.43437136    -0.32900
C2275       C  0.60060206  0.63986882  0.41439132     0.20600
C2276       C  0.61305376  0.67439292  0.41150920     0.02800
C2277       C  0.60955631  0.69991548  0.42830118    -0.22600
C2278       C  0.59321334  0.68926994  0.44808764     0.11900
S2279       S  0.56150170  0.64733023  0.47629613    -0.06300
C2280       C  0.56855961  0.69163909  0.48231789    -0.09700
C2281       C  0.58616508  0.71060298  0.46594822    -0.26300
S2282       S  0.63196443  0.68225686  0.38631059    -0.03500
C2283       C  0.62238470  0.63877911  0.37932885    -0.17000
C2284       C  0.60562741  0.61928466  0.39583687    -0.15000
H2285       H  0.57512647  0.60207040  0.43663049     0.20400
H2286       H  0.61879176  0.72702666  0.42594253     0.16400
H2287       H  0.59266600  0.73870089  0.46688626     0.18900
H2288       H  0.59802183  0.59151139  0.39444181     0.12300
C2289       C  0.81162791  0.53650954  0.44439889     0.16200
C2290       C  0.81226948  0.55605712  0.42460464    -0.32900
C2291       C  0.84468539  0.55839401  0.41315254     0.20600
C2292       C  0.87517193  0.54195422  0.42098872     0.02800
C2293       C  0.87467105  0.52291926  0.44103001    -0.22600
C2294       C  0.84219746  0.52054435  0.45250032     0.11900
S2295       S  0.77460945  0.52942931  0.46021363    -0.06300
C2296       C  0.79807876  0.99963443  0.47680277    -0.09700
C2297       C  0.83415375  0.00060767  0.47171701    -0.26300
S2298       S  0.91111249  0.54568379  0.40367617    -0.03500
C2299       C  0.88484479  0.56999619  0.38582642    -0.17000
C2300       C  0.85019097  0.57489201  0.39317135    -0.15000
H2301       H  0.78835543  0.56837704  0.41818627     0.20400
H2302       H  0.89759136  0.01342726  0.44877733     0.16400
H2303       H  0.85495516  0.99002327  0.48221097     0.18900
H2304       H  0.82956946  0.58831936  0.38384613     0.12300
C2305       C  0.60661692  0.75948146  0.09127168     0.16200
C2306       C  0.63112893  0.76415169  0.10850743    -0.32900
C2307       C  0.61975027  0.78279741  0.12742038     0.20600
C2308       C  0.58568023  0.79677599  0.12891586     0.02800
C2309       C  0.56113948  0.79198142  0.11175004    -0.22600
C2310       C  0.57232662  0.77282691  0.09302874     0.11900
S2311       S  0.61492281  0.73695322  0.06715874    -0.06300
C2312       C  0.57151100  0.74487644  0.05967538    -0.09700
C2313       C  0.55204677  0.76450703  0.07493823    -0.26300
S2314       S  0.57710691  0.81900068  0.15302046    -0.03500
C2315       C  0.61961363  0.80868923  0.16145806    -0.17000
C2316       C  0.63931469  0.78934129  0.14615413    -0.15000
H2317       H  0.65783599  0.75336840  0.10732560     0.20400
H2318       H  0.53432472  0.80246324  0.11302350     0.16400
H2319       H  0.52435550  0.77186930  0.07297518     0.18900
H2320       H  0.66655380  0.78073629  0.14854876     0.12300
C2321       C  0.97153909  0.68514819  0.09156856     0.16200
C2322       C  0.94664840  0.68194360  0.10884478    -0.32900
C2323       C  0.95685346  0.66255591  0.12770532     0.20600
C2324       C  0.99019005  0.64690957  0.12915253     0.02800
C2325       C  0.52045773  0.65458211  0.11434270    -0.22600
C2326       C  0.00501684  0.66991749  0.09334902     0.11900
S2327       S  0.96456251  0.70722235  0.06716629    -0.06300
C2328       C  0.00738655  0.69621086  0.05966888    -0.09700
C2329       C  0.52975260  0.67738894  0.07639399    -0.26300
S2330       S  0.99735235  0.62351490  0.15287366    -0.03500
C2331       C  0.95515895  0.63522368  0.16125667    -0.17000
C2332       C  0.93660077  0.65616842  0.14626085    -0.15000
H2333       H  0.92054207  0.69390724  0.10761916     0.20400
H2334       H  0.54692629  0.64350730  0.11583503     0.16400
H2335       H  0.55727423  0.66937861  0.07462796     0.18900
H2336       H  0.90968505  0.66567338  0.14864830     0.12300
C2337       C  0.71370296  0.87714716  0.41875501     0.16200
C2338       C  0.73940709  0.88591242  0.43458667    -0.32900
C2339       C  0.73076599  0.91211222  0.45025828     0.20600
C2340       C  0.69758036  0.92823408  0.45062403     0.02800
C2341       C  0.67183276  0.91956003  0.43468022    -0.22600
C2342       C  0.68086980  0.89396176  0.41858618     0.11900
S2343       S  0.72030624  0.84796827  0.39746662    -0.06300
C2344       C  0.67894350  0.85942595  0.38755152    -0.09700
C2345       C  0.66071299  0.88385174  0.40068207    -0.26300
S2346       S  0.69210911  0.95855286  0.47157774    -0.03500
C2347       C  0.73535143  0.95010526  0.47936226    -0.17000
C2348       C  0.75263354  0.92479404  0.46657078    -0.15000
H2349       H  0.76537949  0.87337211  0.43439550     0.20400
H2350       H  0.64615744  0.93265521  0.43457677     0.16400
H2351       H  0.63495407  0.89503481  0.39671380     0.18900
H2352       H  0.77958742  0.91566705  0.46939447     0.12300
C2353       C  0.88261696  0.89735431  0.12166056     0.16200
C2354       C  0.87757513  0.92330791  0.10524723    -0.32900
C2355       C  0.84811590  0.91957853  0.09124354     0.20600
C2356       C  0.82511300  0.89081840  0.09313781     0.02800
C2357       C  0.83018391  0.86483128  0.10956584    -0.22600
C2358       C  0.85926331  0.86896764  0.12388781     0.11900
S2359       S  0.91503315  0.89881090  0.14134940    -0.06300
C2360       C  0.89631689  0.86144960  0.15330392    -0.09700
C2361       C  0.86713480  0.84809201  0.14193190    -0.26300
S2362       S  0.79155888  0.89059933  0.07407673    -0.03500
C2363       C  0.80833603  0.92998133  0.06381185    -0.17000
C2364       C  0.83844018  0.94232250  0.07451613    -0.15000
H2365       H  0.89544136  0.94585313  0.10375663     0.20400
H2366       H  0.81190663  0.84268464  0.11134592     0.16400
H2367       H  0.85116936  0.82567315  0.14734513     0.18900
H2368       H  0.85293773  0.96616126  0.06989116     0.12300
C2369       C  0.96611595  0.76360526  0.41142298     0.16200
C2370       C  0.96864284  0.74039914  0.42951378    -0.32900
C2371       C  0.98990637  0.75097541  0.44736485     0.20600
C2372       C  0.50916450  0.78492584  0.44673111     0.02800
C2373       C  0.50629608  0.80800785  0.42845753    -0.22600
C2374       C  0.98437022  0.79574079  0.41114089     0.11900
S2375       S  0.94089329  0.75589497  0.38849045    -0.06300
C2376       C  0.95518911  0.79629522  0.37817814    -0.09700
C2377       C  0.97841514  0.81455596  0.39197292    -0.26300
S2378       S  0.53081047  0.79440291  0.47100346    -0.03500
C2379       C  0.51897606  0.75262109  0.48039603    -0.17000
C2380       C  0.99573156  0.73192519  0.46632595    -0.15000
H2381       H  0.95450564  0.71522894  0.42971033     0.20400
H2382       H  0.51838886  0.83421711  0.42869823     0.16400
H2383       H  0.98977596  0.84046681  0.38837118     0.18900
H2384       H  0.98461308  0.70583029  0.46971057     0.12300
loop_ 
_geom_bond_atom_site_label_1 
_geom_bond_atom_site_label_2 
_geom_bond_distance 
_geom_bond_site_symmetry_2 
_ccdc_geom_bond_type 
C1            N2   1.358       .  A
C1            N6   1.363       .  A
C1          C588   1.478       .  S
N2            C3   1.356       .  A
C3            N4   1.355       .  A
C3          C132   1.464       .  S
N4            C5   1.357       .  A
C5            N6   1.364       .  A
C5           C25   1.469       .  S
C7            N8   1.361       .  A
C7           N12   1.363       .  A
C7          C572   1.477       .  S
N8            C9   1.357       .  A
C9           N10   1.355       .  A
C9          C102   1.464       .  S
N10          C11   1.355       .  A
C11          N12   1.360       .  A
C11          C55   1.466       .  S
C13          N14   1.362       .  A
C13          N18   1.359       .  A
C13         C556   1.475       .  S
N14          C15   1.360       .  A
C15          N16   1.356       .  A
C15          C75   1.465       .  S
N16          C17   1.355       .  A
C17          N18   1.356       .  A
C17         C142   1.461       .  S
C19          N20   1.356       .  A
C19          N24   1.353       .  A
C19         C543   1.468       .  S
N20          C21   1.359       .  A
C21          N22   1.359       .  A
C21         C152   1.461       .  S
N22          C23   1.358       .  A
C23          N24   1.354       .  A
C23          C65   1.460       .  S
C25        N1235   1.348       .  A
C25          C62   1.461       .  S
N26          N43   1.323       .  A
N26        N1240   1.322       .  A
N26         Co63   2.074   1_655  S
C27          N52   1.335       .  A
C27        C1257   1.452       .  S
C27          H72   1.081   1_655  S
H28          C69   1.080   1_455  S
C29          N53   1.338       .  A
C29          C33   1.455       .  S
C29          H58   1.081       .  S
Co30         N48   2.098       .  S
Co30         N38   2.083       .  S
Co30        N666   2.075       .  S
Co30        N642   2.102       .  S
Co30      Cl1266   2.430       .  S
N31          C69   1.347       .  A
N31        N1230   1.319       .  A
N31         Co32   2.087   1_655  S
Co32         N35   2.080       .  S
Co32        N648   2.076   1_455  S
Co32        N635   2.082       .  S
Co32        Cl74   2.469       .  S
C33          N71   1.348       .  A
C33          C80   1.458       .  S
N34          N41   1.319       .  A
N34          N64   1.324       .  A
N34         Co67   2.082       .  S
N35          N53   1.322       .  A
N35          N71   1.324       .  A
N36          C65   1.350       .  A
N36          N46   1.326       .  A
H37          C62   1.081       .  S
N38          N59   1.322       .  A
N38        N1223   1.320       .  A
N39          N57   1.319       .  A
N39          N44   1.326       .  A
N39        Co628   2.088   1_545  S
C40          N44   1.350       .  A
C40          C68   1.456       .  S
C40          C98   1.465       .  S
N41          C56   1.344       .  A
N41         Co63   2.084       .  S
C42          N70   1.334       .  A
C42          C45   1.450       .  S
C42          H76   1.082       .  S
N43        C1217   1.346       .  A
C45        N1258   1.354       .  A
C45          C86   1.465       .  S
N46        N1244   1.320       .  A
N46        Co626   2.090   1_545  S
N47          C73   1.341       .  A
N47          N49   1.321       .  A
N47        Co659   2.079   1_545  S
N48          C62   1.341       .  A
N48        N1218   1.322       .  A
N49          N77   1.323       .  A
N49        Co663   2.085   1_545  S
H50          C73   1.081       .  S
H51          C68   1.082       .  S
N52        N1238   1.320       .  A
N52        Co628   2.068   1_645  S
N53         Co67   2.083       .  S
N54          N66   1.328       .  A
N54        N1262   1.320       .  A
N54        Co659   2.090   1_645  S
C55          N59   1.347       .  A
C55        C1261   1.462       .  S
C56          C75   1.459       .  S
C56          H60   1.081       .  S
N57          C68   1.339       .  A
N57        Co663   2.081   1_545  S
C61          N77   1.348       .  A
C61          C73   1.456       .  S
C61          C94   1.461       .  S
Co63        N643   2.080       .  S
Co63        N650   2.087   1_455  S
Co63        Cl74   2.471       .  S
N64          C75   1.348       .  A
C65        C1219   1.453       .  S
N66        C1237   1.351       .  A
Co67        N645   2.085       .  S
Co67        N653   2.078       .  S
Co67        Cl74   2.431       .  S
C69        C1247   1.462       .  S
N70        N1246   1.320       .  A
N70        Co626   2.070   1_545  S
Cl74      Co1222   2.430   1_455  S
C78          N79   1.358       .  A
C78          N83   1.363       .  A
C78         C527   1.472       .  S
N79          C80   1.354       .  A
C80          N81   1.352       .  A
N81          C82   1.354       .  A
C82          N83   1.361       .  A
C82         C122   1.463       .  S
C84          N85   1.362       .  A
C84          N89   1.364       .  A
C84         C511   1.476       .  S
N85          C86   1.358       .  A
C86          N87   1.356       .  A
N87          C88   1.354       .  A
C88          N89   1.359       .  A
C88         C110   1.469       .  S
C90          N91   1.359       .  A
C90          N95   1.359       .  A
C90         C495   1.472       .  S
N91          C92   1.357       .  A
C92          N93   1.354       .  A
C92         C117   1.463       .  S
N93          C94   1.356       .  A
C94          N95   1.358       .  A
C96          N97   1.360       .  A
C96         N101   1.362       .  A
C96         C479   1.476       .  S
N97          C98   1.356       .  A
C98          N99   1.354       .  A
N99         C100   1.356       .  A
C100        N101   1.360       .  A
C100        C138   1.462       .  S
C102        N120   1.351       .  A
C102        C139   1.453       .  S
N103        N120   1.327       .  A
N103        N125   1.319       .  A
N103       Co140   2.090       .  S
C104        N129   1.342       .  A
C104        C142   1.458       .  S
C104        H149   1.080       .  S
H105        C146   1.081       .  S
C106        N130   1.339       .  A
C106        C110   1.456       .  S
C106        H135   1.082       .  S
Co107       N125   2.073       .  S
Co107       N115   2.093       .  S
Co107       N147   2.090       .  S
Co107       N123   2.077       .  S
Co107      Cl151   2.430       .  S
N108        C146   1.339       .  A
N108        N115   1.322       .  A
N108       Co109   2.076       .  S
Co109       N112   2.089       .  S
Co109       N129   2.081       .  S
Co109       N116   2.075       .  S
Co109      Cl151   2.469       .  S
C110        N148   1.351       .  A
N111        N118   1.322       .  A
N111        N141   1.326       .  A
N111       Co144   2.094       .  S
N112        N130   1.319       .  A
N112        N148   1.328       .  A
N113        C142   1.347       .  A
N113        N123   1.323       .  A
H114        C139   1.082       .  S
N115        N136   1.325       .  A
N116        N134   1.321       .  A
N116        N121   1.323       .  A
C117        N121   1.347       .  A
C117        C145   1.459       .  S
N118        C133   1.336       .  A
N118       Co140   2.072       .  S
C119        N147   1.338       .  A
C119        C122   1.457       .  S
C119        H153   1.081       .  S
C122        N143   1.348       .  A
N123        N129   1.319       .  A
N124        C150   1.345       .  A
N124        N126   1.319       .  A
N124       Co140   2.084       .  S
N125        C139   1.337       .  A
N126        N154   1.322       .  A
N126       Co144   2.079       .  S
H127        C150   1.080       .  S
H128        C145   1.081       .  S
N130       Co144   2.082       .  S
N131        N143   1.326       .  A
N131        N147   1.322       .  A
N131       Co140   2.077       .  S
C132        N136   1.350       .  A
C132        C146   1.456       .  S
C133        C152   1.453       .  S
C133        H137   1.081       .  S
N134        C145   1.341       .  A
N134       Co144   2.093       .  S
C138        N154   1.346       .  A
C138        C150   1.460       .  S
Co140      Cl151   2.472       .  S
N141        C152   1.350       .  A
Co144      Cl151   2.432       .  S
C155        C508   1.481       .  S
C155        C156   1.414       .  A
C155        C160   1.404       .  A
C156        C559   1.475       .  S
C156        C157   1.404       .  A
C157        H162   1.085       .  S
C157        C158   1.402       .  A
C158        C460   1.482       .  S
C158        C159   1.413       .  A
C159        C444   1.472       .  S
C159        C160   1.401       .  A
C160        H757   1.085       .  S
H161        C756   1.085   1_545  S
C163       C1732   1.475       .  S
C163        C164   1.412       .  A
C163       C1360   1.404       .  A
C164        C524   1.477       .  S
C164        C165   1.399       .  A
C165        H170   1.085       .  S
C165        C166   1.404   1_554  A
C166        C415   1.473       .  S
C166        C167   1.415       .  A
C167       C1620   1.484       .  S
C167       C1360   1.406   1_556  A
C168        H169   1.084       .  S
C168       C1355   1.401       .  A
C168       C1359   1.406   1_554  A
C171        C492   1.475       .  S
C171        C172   1.415       .  A
C171        C176   1.400       .  A
C172        C591   1.485       .  S
C172        C173   1.404       .  A
C173       H1370   1.084       .  S
C173        C174   1.407       .  A
C174        C396   1.477       .  S
C174        C175   1.416       .  A
C175        C380   1.481       .  S
C175        C176   1.402       .  A
C176        H177   1.084       .  S
H178       C1365   1.085       .  S
C179        C575   1.472       .  S
C179        C180   1.411       .  A
C179        C184   1.403       .  A
C180        C476   1.471       .  S
C180        C181   1.400       .  A
C181        H782   1.085       .  S
C181        C182   1.398       .  A
C182        C348   1.469   1_554  S
C182        C183   1.413       .  A
C183        C367   1.477   1_554  S
C183        C184   1.402       .  A
C184        H185   1.085       .  S
H186        C777   1.085   1_545  S
C187        N188   1.359       .  A
C187        N192   1.360       .  A
C187        C364   1.475       .  S
N188        C189   1.357       .  A
C189        N190   1.357       .  A
C189        C318   1.469       .  S
N190        C191   1.359       .  A
C191        N192   1.361       .  A
C191        C223   1.467       .  S
C193        N194   1.363       .  A
C193        N198   1.364       .  A
C193        C431   1.478       .  S
N194        C195   1.359       .  A
C195        N196   1.354       .  A
C195        C243   1.463       .  S
N196        C197   1.351       .  A
C197        N198   1.360       .  A
C197        C296   1.466       .  S
C199        N200   1.361       .  A
C199        N204   1.357       .  A
C199        C351   1.473       .  S
N200        C201   1.360       .  A
C201        N202   1.359       .  A
C201        C259   1.471       .  S
N202        C203   1.358       .  A
C203        N204   1.356       .  A
C203        C303   1.465       .  S
C205        N206   1.357       .  A
C205        N210   1.360       .  A
C205        C412   1.471       .  S
N206        C207   1.355       .  A
C207        N208   1.358       .  A
C207        C273   1.463       .  S
N208        C209   1.359       .  A
C209        N210   1.359       .  A
C209        C328   1.465       .  S
C211        N212   1.358       .  A
C211        N216   1.363       .  A
C211        C383   1.474       .  S
N212        C213   1.355       .  A
C213        N214   1.354       .  A
C213        C238   1.458       .  S
N214        C215   1.355       .  A
C215        N216   1.361       .  A
C215        C324   1.462       .  S
C217        N218   1.358       .  A
C217        N222   1.357       .  A
C217        C447   1.476       .  S
N218        C219   1.361       .  A
C219        N220   1.361       .  A
C219        C338   1.464       .  S
N220        C221   1.357       .  A
C221        N222   1.357       .  A
C221        C263   1.470       .  S
C223        N241   1.349       .  A
C223        C260   1.458       .  S
N224        N241   1.325       .  A
N224        N246   1.321       .  A
N224       Co261   2.081       .  S
C225        N250   1.338       .  A
C225        C263   1.455       .  S
C225        H270   1.081       .  S
H226        C267   1.080       .  S
C227        N251   1.339       .  A
C227        C231   1.458       .  S
C227        H256   1.082       .  S
Co228       N246   2.093       .  S
Co228       N236   2.080       .  S
Co228       N268   2.072       .  S
Co228       N244   2.103       .  S
Co228      Cl272   2.431       .  S
N229        C267   1.342       .  A
N229        N236   1.319       .  A
N229       Co230   2.081       .  S
Co230       N233   2.079       .  S
Co230       N250   2.076       .  S
Co230       N237   2.085       .  S
Co230      Cl272   2.468       .  S
C231        N269   1.349       .  A
C231        C284   1.468       .  S
N232        N239   1.319       .  A
N232        N262   1.324       .  A
N232       Co265   2.077       .  S
N233        N251   1.321       .  A
N233        N269   1.327       .  A
N234        C263   1.353       .  A
N234        N244   1.329       .  A
H235        C260   1.081       .  S
N236        N257   1.323       .  A
N237        N255   1.319       .  A
N237        N242   1.325       .  A
C238        N242   1.350       .  A
C238        C266   1.454       .  S
N239        C254   1.342       .  A
N239       Co261   2.089       .  S
C240        N268   1.333       .  A
C240        C243   1.451       .  S
C240        H274   1.082       .  S
C243        N264   1.353       .  A
N244        N250   1.321       .  A
N245        C271   1.343       .  A
N245        N247   1.321       .  A
N245       Co261   2.087       .  S
N246        C260   1.341       .  A
N247        N275   1.326       .  A
N247       Co265   2.096       .  S
H248        C271   1.081       .  S
H249        C266   1.082       .  S
N251       Co265   2.092       .  S
N252        N264   1.329       .  A
N252        N268   1.321       .  A
N252       Co261   2.093       .  S
C253        N257   1.348       .  A
C253        C267   1.458       .  S
C253        C278   1.461       .  S
C254        C273   1.460       .  S
C254        H258   1.080       .  S
N255        C266   1.337       .  A
N255       Co265   2.073       .  S
C259        N275   1.350       .  A
C259        C271   1.459       .  S
Co261      Cl272   2.473       .  S
N262        C273   1.347       .  A
Co265      Cl272   2.432       .  S
C276        N277   1.359       .  A
C276        N281   1.363       .  A
C276        C399   1.476       .  S
N277        C278   1.355       .  A
C278        N279   1.354       .  A
N279        C280   1.357       .  A
C280        N281   1.360       .  A
C280        C288   1.465       .  S
C282        N283   1.363       .  A
C282        N287   1.362       .  A
C282        C463   1.478       .  S
N283        C284   1.361       .  A
C284        N285   1.355       .  A
N285        C286   1.354       .  A
C286        N287   1.358       .  A
C286        C308   1.468       .  S
C288        N306   1.352       .  A
C288        C325   1.453       .  S
N289        N306   1.328       .  A
N289        N311   1.320       .  A
N289      Co1518   2.093       .  S
C290        N315   1.344       .  A
C290        C328   1.461       .  S
C290        H335   1.080       .  S
H291        C332   1.081       .  S
C292        N316   1.340       .  A
C292        C296   1.458       .  S
C292        H321   1.081       .  S
Co293       N333   2.091       .  S
Co293       N309   2.077       .  S
Co293      N1503   2.071   1_455  S
Co293      N1493   2.096   1_455  S
Co293      Cl337   2.431       .  S
N294        C332   1.340       .  A
N294        N301   1.321       .  A
N294      Co1487   2.079       .  S
Co295       N315   2.089       .  S
Co295      N1486   2.070   1_455  S
Co295      N2086   2.085   1_455  S
Co295       N898   2.074       .  S
Co295      Cl337   2.469       .  S
C296        N334   1.348       .  A
N297        N304   1.322       .  A
N297        N327   1.325       .  A
N297      Co1522   2.095       .  S
N298        N316   1.320       .  A
N298        N334   1.326       .  A
N298      Co2083   2.083   1_545  S
N299        C328   1.347       .  A
N299        N309   1.323       .  A
H300        C325   1.082       .  S
N301        N322   1.327       .  A
N301      Co1485   2.101       .  S
N302        N320   1.321       .  A
N302        N307   1.324       .  A
N302       Co891   2.077   1_545  S
C303        N307   1.349       .  A
C303        C331   1.458       .  S
N304        C319   1.339       .  A
N304      Co2114   2.075   1_545  S
C305        N333   1.339       .  A
C305        C308   1.457       .  S
C305        H339   1.081       .  S
C308        N329   1.350       .  A
N309        N315   1.319       .  A
N310        C336   1.345       .  A
N310        N312   1.320       .  A
N310       Co922   2.088   1_545  S
N311        C325   1.337       .  A
N311      Co1485   2.075       .  S
N312        N340   1.322       .  A
N312       Co330   2.078       .  S
H313        C336   1.081   1_565  S
H314        C331   1.081       .  S
N316      Co1522   2.087       .  S
N317        N329   1.327       .  A
N317        N333   1.322       .  A
N317       Co326   2.087       .  S
C318        N322   1.351       .  A
C318        C332   1.457       .  S
C319        C338   1.455       .  S
C319        H323   1.081   1_545  S
N320        C331   1.341       .  A
N320       Co330   2.090       .  S
C324        N340   1.346       .  A
C324        C336   1.460       .  S
Co326      N1481   2.087   1_455  S
Co326      N2092   2.082   1_455  S
Co326       N906   2.088       .  S
Co326      Cl337   2.473       .  S
N327        C338   1.350       .  A
Co330      N1489   2.093   1_455  S
Co330      N1508   2.085   1_455  S
Co330      Cl933   2.430   1_545  S
Cl337      Co926   2.430       .  S
C341        C346   1.387   1_545  A
C341        C342   1.401       .  A
C341        S943   1.707       .  A
C342        H353   1.083       .  S
C342        C343   1.402       .  A
C343        C352   1.371       .  A
C343        C344   1.387       .  A
C344        C345   1.401   1_545  A
C344        S350   1.706   1_545  A
C345        H354   1.083       .  S
C345        C346   1.402       .  A
C346        C349   1.369       .  A
S347        C348   1.720       .  A
S347        C937   1.706       .  A
C348        C945   1.382       .  A
C349        H355   1.083       .  S
C349        C944   1.387       .  A
S350        C351   1.724   1_565  A
C351        C352   1.386       .  A
C352        H356   1.083       .  S
C357        C362   1.387       .  A
C357        C358   1.400       .  A
C357        S363   1.705       .  A
C358        H369   1.083       .  S
C358        C359   1.401       .  A
C359        C368   1.369       .  A
C359        C360   1.387       .  A
C360        C361   1.404       .  A
C360        S366   1.710       .  A
C361        H370   1.083       .  S
C361        C362   1.405       .  A
C362        C365   1.374       .  A
S363        C364   1.723       .  A
C364        C365   1.389       .  A
C365        H371   1.083       .  S
S366        C367   1.722       .  A
C367        C368   1.385       .  A
C368        H372   1.083       .  S
C373        C378   1.387       .  A
C373        C374   1.404       .  A
C373        S379   1.709       .  A
C374        H385   1.084       .  S
C374        C375   1.404       .  A
C375        C384   1.374       .  A
C375        C376   1.387       .  A
C376        C377   1.401       .  A
C376        S382   1.704       .  A
C377        H386   1.084       .  S
C377        C378   1.401       .  A
C378        C381   1.371       .  A
S379        C380   1.724       .  A
C380        C381   1.386       .  A
C381        H387   1.084       .  S
S382        C383   1.725       .  A
C383        C384   1.387       .  A
C384        H388   1.084       .  S
C389        C394   1.387       .  A
C389       C1582   1.403       .  A
C389       S1587   1.710       .  A
C390        H401   1.085   1_655  S
C390       C1581   1.405       .  A
C390       C1583   1.406       .  A
C391        C400   1.373       .  A
C391        C392   1.387       .  A
C391       C1582   1.404       .  A
C392        C393   1.401       .  A
C392        S398   1.705       .  A
C393        H402   1.085       .  S
C393        C394   1.401       .  A
C394        C397   1.370       .  A
S395        C396   1.724       .  A
S395       C1581   1.712   1_455  A
C396       C1589   1.383   1_455  A
C397        H403   1.085       .  S
C397       C1588   1.384       .  A
S398        C399   1.725       .  A
C399        C400   1.388       .  A
C400        H404   1.084       .  S
C405        C410   1.387       .  A
C405        C406   1.401       .  A
C405        S411   1.706       .  A
C406        H417   1.085       .  S
C406        C407   1.402       .  A
C407        C416   1.370       .  A
C407        C408   1.388       .  A
C408        C409   1.401       .  A
C408        S414   1.706       .  A
C409        H418   1.085       .  S
C409        C410   1.402       .  A
C410        C413   1.370       .  A
S411        C412   1.724       .  A
C412        C413   1.386       .  A
C413        H419   1.085       .  S
S414        C415   1.721       .  A
C415        C416   1.384       .  A
C416        H420   1.084       .  S
C421        C426   1.386       .  A
C421        C422   1.402       .  A
C421       S1619   1.707       .  A
C422       H1625   1.083       .  S
C422        C423   1.403       .  A
C423        C432   1.372       .  A
C423        C424   1.386       .  A
C424        C425   1.405       .  A
C424        S430   1.712       .  A
C425        H434   1.083       .  S
C425        C426   1.406       .  A
C426        C429   1.374       .  A
S427       C1613   1.708   1_455  A
S427       C1620   1.725       .  A
C428       C1359   1.485       .  S
C428        C429   1.389       .  A
C428       S1619   1.724       .  A
C429        H435   1.083       .  S
S430        C431   1.725       .  A
C431        C432   1.388       .  A
C432        H436   1.083       .  S
H433       C1614   1.083   1_455  S
C437        C438   1.403       .  A
C437       C1038   1.388       .  A
C437        S443   1.709       .  A
C438        H449   1.085       .  S
C438       C1035   1.403       .  A
C439        C448   1.377       .  A
C439        C440   1.387       .  A
C439       C1034   1.409   1_545  A
C440        C441   1.396       .  A
C440        S446   1.701       .  A
C441        H450   1.086       .  S
C441        C442   1.397       .  A
C442        C445   1.366       .  A
C442       C1033   1.387   1_545  A
S443        C444   1.721       .  A
C444       C1041   1.382       .  A
C445        H451   1.085       .  S
C445       C1040   1.382   1_545  A
S446        C447   1.721       .  A
C447        C448   1.392       .  A
C448        H452   1.083       .  S
C453        C458   1.387       .  A
C453        C454   1.403       .  A
C453        S459   1.711       .  A
C454        H465   1.083       .  S
C454        C455   1.404       .  A
C455        C464   1.372       .  A
C455        C456   1.387       .  A
C456        C457   1.403       .  A
C456        S462   1.711       .  A
C457        H466   1.083       .  S
C457        C458   1.404       .  A
C458        C461   1.370       .  A
S459        C460   1.722       .  A
C460        C461   1.387       .  A
C461        H467   1.083       .  S
S462        C463   1.725       .  A
C463        C464   1.388       .  A
C464        H468   1.083       .  S
C469        C474   1.387       .  A
C469        C470   1.405       .  A
C469        S475   1.711       .  A
C470        H481   1.083       .  S
C470        C471   1.406       .  A
C471        C480   1.375       .  A
C471        C472   1.387       .  A
C472        C473   1.399       .  A
C472        S478   1.702       .  A
C473        H482   1.084   1_545  S
C473        C474   1.399       .  A
C474       C1073   1.368   1_545  A
S475       C1072   1.723   1_545  A
C476        C477   1.385       .  A
C476       S1071   1.719       .  A
C477        H483   1.084       .  S
C477       C1070   1.369       .  A
S478        C479   1.723       .  A
C479        C480   1.390       .  A
C480        H484   1.083       .  S
C485        C490   1.387       .  A
C485        C486   1.403       .  A
C485        S491   1.710       .  A
C486        H497   1.083       .  S
C486        C487   1.404       .  A
C487        C496   1.371       .  A
C487        C488   1.387       .  A
C488        C489   1.398       .  A
C488        S494   1.704       .  A
C489        H498   1.084       .  S
C489        C490   1.399       .  A
C490        C493   1.365       .  A
S491        C492   1.722       .  A
C492        C493   1.383       .  A
C493        H499   1.084       .  S
S494        C495   1.722       .  A
C495        C496   1.388       .  A
C496        H500   1.083       .  S
C501        C506   1.386       .  A
C501        C502   1.400       .  A
C501        S507   1.703       .  A
C502        H513   1.084       .  S
C502        C503   1.401       .  A
C503        C512   1.370       .  A
C503        C504   1.386       .  A
C504        C505   1.406       .  A
C504        S510   1.712       .  A
C505       H1110   1.084       .  S
C505        C506   1.406       .  A
C506       C1105   1.376   1_545  A
S507       C1104   1.725   1_545  A
C508        C509   1.385       .  A
C508       S1103   1.725       .  A
C509        H515   1.084       .  S
C509       C1102   1.371       .  A
S510        C511   1.726       .  A
C511        C512   1.387       .  A
C512        H516   1.084       .  S
H514       C1101   1.084       .  S
C517        C522   1.387       .  A
C517        C518   1.403       .  A
C517        S523   1.710       .  A
C518        H529   1.085       .  S
C518        C519   1.404       .  A
C519        C528   1.373       .  A
C519        C520   1.387       .  A
C520        C521   1.399       .  A
C520        S526   1.703       .  A
C521        H530   1.085       .  S
C521        C522   1.400       .  A
C522        C525   1.368       .  A
S523        C524   1.722       .  A
C524        C525   1.385       .  A
C525        H531   1.085       .  S
S526        C527   1.723       .  A
C527        C528   1.387       .  A
C528        H532   1.084       .  S
C533        C538   1.387       .  A
C533        C534   1.402       .  A
C533        S539   1.709       .  A
C534        H545   1.083       .  S
C534        C535   1.403       .  A
C535        C544   1.370       .  A
C535        C536   1.387       .  A
C536       C1729   1.398       .  A
C536        S542   1.702       .  A
C537        H546   1.083       .  S
C537       C1728   1.400   1_455  A
C537       C1730   1.400       .  A
C538       C1729   1.399       .  A
C538       C1733   1.366       .  A
S539        C540   1.721       .  A
C540       C1355   1.474       .  S
C540       C1733   1.383       .  A
C541        H547   1.083       .  S
C541       C1730   1.367       .  A
C541       C1732   1.385       .  A
S542        C543   1.722       .  A
C543        C544   1.386       .  A
C544        H548   1.083       .  S
C549        C554   1.387       .  A
C549        C550   1.402       .  A
C549        S555   1.705       .  A
C550        H561   1.084       .  S
C550        C551   1.402       .  A
C551        C560   1.370       .  A
C551        C552   1.387       .  A
C552        C553   1.403       .  A
C552        S558   1.709       .  A
C553        H562   1.084       .  S
C553        C554   1.403       .  A
C554        C557   1.373       .  A
S555        C556   1.725       .  A
C556        C557   1.387       .  A
C557        H563   1.084       .  S
S558        C559   1.721       .  A
C559        C560   1.385       .  A
C560        H564   1.084       .  S
C565        C570   1.386       .  A
C565        C566   1.402       .  A
C565        S571   1.710       .  A
C566        H577   1.084       .  S
C566        C567   1.403       .  A
C567        C576   1.370       .  A
C567        C568   1.388       .  A
C568        C569   1.401       .  A
C568        S574   1.709       .  A
C569        H578   1.083       .  S
C569        C570   1.403       .  A
C570        C573   1.370       .  A
S571        C572   1.724       .  A
C572        C573   1.389       .  A
C573        H579   1.083       .  S
S574        C575   1.720       .  A
C575        C576   1.384       .  A
C576        H580   1.083       .  S
C581        C586   1.387       .  A
C581        C582   1.401       .  A
C581        S587   1.705       .  A
C582        H593   1.084       .  S
C582        C583   1.401       .  A
C583        C592   1.369       .  A
C583       C1776   1.387       .  A
C584        C585   1.407       .  A
C584       C1775   1.386   1_455  A
C584        S590   1.715       .  A
C585        H594   1.083       .  S
C585       C1778   1.408   1_455  A
C586        C589   1.377       .  A
C586       C1777   1.407       .  A
S587        C588   1.724       .  A
C588        C589   1.390       .  A
C589        H595   1.083       .  S
S590        C591   1.725       .  A
C591       C1784   1.386   1_455  A
C592        H596   1.084       .  S
C592       C1783   1.386       .  A
C597        N598   1.360       .  A
C597        N602   1.359       .  A
C597       C1184   1.476       .  S
N598        C599   1.359       .  A
C599        N600   1.358       .  A
C599        C728   1.471       .  S
N600        C601   1.359       .  A
C601        N602   1.359       .  A
C601        C621   1.467       .  S
C603        N604   1.363       .  A
C603        N608   1.361       .  A
C603       C1168   1.477       .  S
N604        C605   1.359       .  A
C605        N606   1.357       .  A
C605        C698   1.467       .  S
N606        C607   1.356       .  A
C607        N608   1.357       .  A
C607        C651   1.466       .  S
C609        N610   1.360       .  A
C609        N614   1.357       .  A
C609       C1152   1.471       .  S
N610        C611   1.358       .  A
C611        N612   1.357       .  A
C611        C671   1.463       .  S
N612        C613   1.357       .  A
C613        N614   1.355       .  A
C613        C738   1.459       .  S
C615        N616   1.357       .  A
C615        N620   1.354       .  A
C615       C1139   1.471       .  S
N616        C617   1.360       .  A
C617        N618   1.362       .  A
C617        C748   1.465       .  S
N618        C619   1.359       .  A
C619        N620   1.356       .  A
C619        C661   1.467       .  S
C621       N1831   1.350       .  A
C621        C658   1.457       .  S
N622        N639   1.326       .  A
N622       N1836   1.322       .  A
N622       Co659   2.083   1_655  S
C623        N648   1.337       .  A
C623       C1853   1.456       .  S
C623        H668   1.081   1_655  S
H624        C665   1.081   1_455  S
C625        N649   1.338       .  A
C625        C629   1.456       .  S
C625        H654   1.081       .  S
Co626       N644   2.086       .  S
Co626       N634   2.080       .  S
Co626     Cl1862   2.431       .  S
N627        C665   1.344       .  A
N627       N1826   1.319       .  A
N627       Co628   2.087   1_655  S
Co628       N631   2.071       .  S
Co628      Cl670   2.468       .  S
C629        N667   1.347       .  A
C629        C676   1.458       .  S
N630        N637   1.320       .  A
N630        N660   1.324       .  A
N630       Co663   2.082       .  S
N631        N649   1.321       .  A
N631        N667   1.323       .  A
N632        C661   1.352       .  A
N632        N642   1.329       .  A
H633        C658   1.081       .  S
N634       N1819   1.319       .  A
N634        N655   1.323       .  A
N635        N653   1.319       .  A
N635        N640   1.325       .  A
C636        N640   1.349       .  A
C636        C664   1.457       .  S
C636        C694   1.462       .  S
N637        C652   1.343       .  A
N637       Co659   2.087       .  S
C638        N666   1.335       .  A
C638        C641   1.452       .  S
C638        H672   1.082       .  S
N639       C1813   1.350       .  A
C641       N1854   1.351       .  A
C641        C682   1.463       .  S
N642       N1840   1.321       .  A
N643        C669   1.341       .  A
N643        N645   1.321       .  A
N644        C658   1.341       .  A
N644       N1814   1.321       .  A
N645        N673   1.323       .  A
H646        C669   1.081       .  S
H647        C664   1.081       .  S
N648       N1834   1.321       .  A
N649       Co663   2.083       .  S
N650        N662   1.328       .  A
N650       N1858   1.320       .  A
C651        N655   1.347       .  A
C651       C1857   1.461       .  S
C652        C671   1.459       .  S
C652        H656   1.081       .  S
N653        C664   1.340       .  A
C657        N673   1.347       .  A
C657        C669   1.459       .  S
C657        C690   1.463       .  S
Co659      Cl670   2.473       .  S
N660        C671   1.347       .  A
C661       C1815   1.453       .  S
N662       C1833   1.351       .  A
Co663      Cl670   2.431       .  S
C665       C1843   1.461       .  S
N666       N1842   1.321       .  A
Cl670     Co1818   2.432   1_455  S
C674        N675   1.358       .  A
C674        N679   1.362       .  A
C674       C1123   1.473       .  S
N675        C676   1.355       .  A
C676        N677   1.351       .  A
N677        C678   1.353       .  A
C678        N679   1.360       .  A
C678        C718   1.461       .  S
C680        N681   1.364       .  A
C680        N685   1.362       .  A
C680       C1107   1.477       .  S
N681        C682   1.360       .  A
C682        N683   1.352       .  A
N683        C684   1.351       .  A
C684        N685   1.357       .  A
C684        C706   1.458       .  S
C686        N687   1.358       .  A
C686        N691   1.360       .  A
C686       C1091   1.472       .  S
N687        C688   1.357       .  A
C688        N689   1.356       .  A
C688        C713   1.467       .  S
N689        C690   1.358       .  A
C690        N691   1.359       .  A
C692        N693   1.358       .  A
C692        N697   1.361       .  A
C692       C1075   1.469       .  S
N693        C694   1.356       .  A
C694        N695   1.356       .  A
N695        C696   1.357       .  A
C696        N697   1.357       .  A
C696        C734   1.463       .  S
C698        N716   1.353       .  A
C698        C735   1.453       .  S
N699        N716   1.329       .  A
N699        N721   1.320       .  A
N699       Co736   2.099       .  S
C700        N725   1.341       .  A
C700        C738   1.459       .  S
C700        H745   1.080       .  S
H701        C742   1.081       .  S
C702        N726   1.336       .  A
C702        C706   1.454       .  S
C702        H731   1.082       .  S
Co703       N721   2.073       .  S
Co703       N711   2.096       .  S
Co703       N743   2.088       .  S
Co703       N719   2.076       .  S
Co703      Cl747   2.429       .  S
N704        C742   1.342       .  A
N704        N711   1.321       .  A
N704       Co705   2.084       .  S
Co705       N708   2.079       .  S
Co705       N725   2.078       .  S
Co705       N712   2.081       .  S
Co705      Cl747   2.469       .  S
C706        N744   1.348       .  A
N707        N714   1.322       .  A
N707        N737   1.326       .  A
N707       Co740   2.095       .  S
N708        N726   1.319       .  A
N708        N744   1.325       .  A
N709        C738   1.347       .  A
N709        N719   1.323       .  A
H710        C735   1.082       .  S
N711        N732   1.326       .  A
N712        N730   1.321       .  A
N712        N717   1.324       .  A
C713        N717   1.348       .  A
C713        C741   1.460       .  S
N714        C729   1.338       .  A
N714       Co736   2.076       .  S
C715        N743   1.337       .  A
C715        C718   1.457       .  S
C715        H749   1.081       .  S
C718        N739   1.347       .  A
N719        N725   1.318       .  A
N720        C746   1.346       .  A
N720        N722   1.319       .  A
N720       Co736   2.094       .  S
N721        C735   1.337       .  A
N722        N750   1.321       .  A
N722       Co740   2.071       .  S
H723        C746   1.080       .  S
H724        C741   1.081       .  S
N726       Co740   2.074       .  S
N727        N739   1.325       .  A
N727        N743   1.321       .  A
N727       Co736   2.075       .  S
C728        N732   1.351       .  A
C728        C742   1.458       .  S
C729        C748   1.456       .  S
C729        H733   1.081       .  S
N730        C741   1.343       .  A
N730       Co740   2.094       .  S
C734        N750   1.344       .  A
C734        C746   1.463       .  S
Co736      Cl747   2.473       .  S
N737        C748   1.350       .  A
Co740      Cl747   2.429       .  S
C751       C1104   1.488       .  S
C751        C752   1.417       .  A
C751        C756   1.408       .  A
C752       C1155   1.474       .  S
C752        C753   1.401       .  A
C753        H758   1.085       .  S
C753        C754   1.397       .  A
C754       C1056   1.473       .  S
C754        C755   1.412       .  A
C755       C1040   1.478       .  S
C755        C756   1.404       .  A
C759       C2328   1.472       .  S
C759        C760   1.412       .  A
C759       C1956   1.402       .  A
C760       C1120   1.476       .  S
C760        C761   1.398       .  A
C761        H766   1.085       .  S
C761        C762   1.404   1_554  A
C762       C1011   1.474       .  S
C762        C763   1.415       .  A
C763       C2216   1.483       .  S
C763       C1956   1.403   1_556  A
C764        H765   1.085       .  S
C764       C1951   1.402       .  A
C764       C1955   1.403   1_554  A
C767       C1088   1.476       .  S
C767        C768   1.412       .  A
C767        C772   1.399       .  A
C768       C1187   1.475       .  S
C768        C769   1.400       .  A
C769       H1966   1.084       .  S
C769        C770   1.405       .  A
C770        C992   1.481       .  S
C770        C771   1.417       .  A
C771        C976   1.476       .  S
C771        C772   1.403       .  A
C772        H773   1.085       .  S
H774       C1961   1.084       .  S
C775       C1171   1.474       .  S
C775        C776   1.413       .  A
C775        C780   1.404       .  A
C776       C1072   1.473       .  S
C776        C777   1.401       .  A
C777        C778   1.401       .  A
C778        C944   1.478   1_554  S
C778        C779   1.414       .  A
C779        C963   1.477   1_554  S
C779        C780   1.401       .  A
C780        H781   1.085       .  S
C783        N784   1.359       .  A
C783        N788   1.360       .  A
C783        C960   1.474       .  S
N784        C785   1.358       .  A
C785        N786   1.356       .  A
C785        C914   1.467       .  S
N786        C787   1.358       .  A
C787        N788   1.359       .  A
C787        C819   1.465       .  S
C789        N790   1.363       .  A
C789        N794   1.364       .  A
C789       C1027   1.478       .  S
N790        C791   1.359       .  A
C791        N792   1.353       .  A
C791        C839   1.463       .  S
N792        C793   1.352       .  A
C793        N794   1.360       .  A
C793        C892   1.465       .  S
C795        N796   1.360       .  A
C795        N800   1.353       .  A
C795        C947   1.466       .  S
N796        C797   1.360       .  A
C797        N798   1.360       .  A
C797        C855   1.466       .  S
N798        C799   1.357       .  A
C799        N800   1.352       .  A
C799        C899   1.460       .  S
C801        N802   1.357       .  A
C801        N806   1.358       .  A
C801       C1008   1.468       .  S
N802        C803   1.356       .  A
C803        N804   1.359       .  A
C803        C869   1.462       .  S
N804        C805   1.358       .  A
C805        N806   1.356       .  A
C805        C924   1.464       .  S
C807        N808   1.360       .  A
C807        N812   1.362       .  A
C807        C979   1.475       .  S
N808        C809   1.356       .  A
C809        N810   1.355       .  A
C809        C834   1.463       .  S
N810        C811   1.356       .  A
C811        N812   1.360       .  A
C811        C920   1.461       .  S
C813        N814   1.358       .  A
C813        N818   1.352       .  A
C813       C1043   1.470       .  S
N814        C815   1.362       .  A
C815        N816   1.362       .  A
C815        C934   1.466       .  S
N816        C817   1.358       .  A
C817        N818   1.352       .  A
C817        C859   1.464       .  S
C819        N837   1.350       .  A
C819        C856   1.456       .  S
N820        N837   1.326       .  A
N820        N842   1.322       .  A
N820       Co857   2.085       .  S
C821        N846   1.335       .  A
C821        C859   1.454       .  S
C821        H866   1.081       .  S
H822        C863   1.080       .  S
C823        N847   1.338       .  A
C823        C827   1.456       .  S
C823        H852   1.081       .  S
Co824       N842   2.087       .  S
Co824       N832   2.084       .  S
Co824       N864   2.074       .  S
Co824       N840   2.091       .  S
Co824      Cl868   2.430       .  S
N825        C863   1.345       .  A
N825        N832   1.320       .  A
N825       Co826   2.091       .  S
Co826       N829   2.081       .  S
Co826       N846   2.073       .  S
Co826       N833   2.090       .  S
Co826      Cl868   2.470       .  S
C827        N865   1.350       .  A
C827        C880   1.465       .  S
N828        N835   1.320       .  A
N828        N858   1.323       .  A
N828       Co861   2.075       .  S
N829        N847   1.321       .  A
N829        N865   1.326       .  A
N830        C859   1.350       .  A
N830        N840   1.328       .  A
H831        C856   1.081       .  S
N832        N853   1.324       .  A
N833        N851   1.319       .  A
N833        N838   1.326       .  A
C834        N838   1.351       .  A
C834        C862   1.454       .  S
N835        C850   1.343       .  A
N835       Co857   2.090       .  S
C836        N864   1.334       .  A
C836        C839   1.451       .  S
C836        H870   1.082       .  S
C839        N860   1.352       .  A
N840        N846   1.321       .  A
N841        C867   1.343       .  A
N841        N843   1.321       .  A
N841       Co857   2.086       .  S
N842        C856   1.339       .  A
N843        N871   1.324       .  A
N843       Co861   2.086       .  S
H844        C867   1.081       .  S
H845        C862   1.082       .  S
N847       Co861   2.086       .  S
N848        N860   1.328       .  A
N848        N864   1.320       .  A
N848       Co857   2.090       .  S
C849        N853   1.348       .  A
C849        C863   1.462       .  S
C849        C874   1.468       .  S
C850        C869   1.462       .  S
C850        H854   1.080       .  S
N851        C862   1.338       .  A
N851       Co861   2.072       .  S
C855        N871   1.347       .  A
C855        C867   1.460       .  S
Co857      Cl868   2.475       .  S
N858        C869   1.346       .  A
Co861      Cl868   2.429       .  S
C872        N873   1.363       .  A
C872        N877   1.361       .  A
C872        C995   1.476       .  S
N873        C874   1.361       .  A
C874        N875   1.357       .  A
N875        C876   1.356       .  A
C876        N877   1.356       .  A
C876        C884   1.466       .  S
C878        N879   1.362       .  A
C878        N883   1.360       .  A
C878       C1059   1.473       .  S
N879        C880   1.358       .  A
C880        N881   1.354       .  A
N881        C882   1.354       .  A
C882        N883   1.357       .  A
C882        C904   1.461       .  S
C884        N902   1.353       .  A
C884        C921   1.451       .  S
N885        N902   1.328       .  A
N885        N907   1.320       .  A
N885      Co2114   2.098       .  S
C886        N911   1.341       .  A
C886        C924   1.458       .  S
C886        H931   1.081       .  S
H887        C928   1.081       .  S
C888        N912   1.338       .  A
C888        C892   1.456       .  S
C888        H917   1.082       .  S
Co889      N2099   2.074   1_455  S
Co889      N2089   2.089   1_455  S
Co889       N929   2.081       .  S
Co889       N905   2.081       .  S
Co889      Cl933   2.431       .  S
N890        C928   1.339       .  A
N890        N897   1.320       .  A
N890      Co2083   2.074       .  S
Co891      N2082   2.071   1_455  S
Co891      N1490   2.084   1_465  S
Co891       N911   2.082       .  S
Co891      Cl933   2.469       .  S
C892        N930   1.350       .  A
N893        N900   1.321       .  A
N893        N923   1.325       .  A
N893      Co2118   2.090       .  S
N894        N912   1.320       .  A
N894        N930   1.327       .  A
N894      Co1487   2.086       .  S
N895        C924   1.348       .  A
N895        N905   1.325       .  A
H896        C921   1.082       .  S
N897        N918   1.326       .  A
N897      Co2081   2.098       .  S
N898        N916   1.321       .  A
N898        N903   1.322       .  A
C899        N903   1.348       .  A
C899        C927   1.456       .  S
N900        C915   1.340       .  A
N900      Co1518   2.081       .  S
C901        N929   1.337       .  A
C901        C904   1.454       .  S
C901        H935   1.081       .  S
C904        N925   1.349       .  A
N905        N911   1.319       .  A
N906        C932   1.345       .  A
N906        N908   1.320       .  A
N907        C921   1.337       .  A
N907      Co2081   2.068       .  S
N908        N936   1.321       .  A
N908       Co926   2.076       .  S
H909        C932   1.081       .  S
H910        C927   1.081       .  S
N912      Co2118   2.081       .  S
N913        N925   1.325       .  A
N913        N929   1.322       .  A
N913       Co922   2.083       .  S
C914        N918   1.352       .  A
C914        C928   1.455       .  S
C915        C934   1.457       .  S
C915        H919   1.081       .  S
N916        C927   1.341       .  A
N916       Co926   2.085       .  S
C920        N936   1.345       .  A
C920        C932   1.461       .  S
Co922      N2077   2.092   1_455  S
Co922      N1496   2.079   1_465  S
Co922      Cl933   2.475       .  S
N923        C934   1.349       .  A
Co926      N2085   2.092   1_455  S
Co926      N2104   2.081   1_455  S
C937        C942   1.388       .  A
C937        C938   1.400       .  A
C938        H949   1.084       .  S
C938        C939   1.401       .  A
C939        C948   1.369       .  A
C939        C940   1.388       .  A
C940        C941   1.398       .  A
C940        S946   1.701       .  A
C941        H950   1.084       .  S
C941        C942   1.398       .  A
C942        C945   1.365       .  A
S943        C944   1.721   1_545  A
C945        H951   1.084       .  S
S946        C947   1.723       .  A
C947        C948   1.384       .  A
C948        H952   1.083       .  S
C953        C958   1.387       .  A
C953        C954   1.398       .  A
C953        S959   1.705       .  A
C954        H965   1.083       .  S
C954        C955   1.399       .  A
C955        C964   1.365       .  A
C955        C956   1.387       .  A
C956        C957   1.404       .  A
C956        S962   1.713       .  A
C957        H966   1.083       .  S
C957        C958   1.406       .  A
C958        C961   1.373       .  A
S959        C960   1.722       .  A
C960        C961   1.389       .  A
C961        H967   1.083       .  S
S962        C963   1.723       .  A
C963        C964   1.384       .  A
C964        H968   1.084       .  S
C969        C974   1.387       .  A
C969        C970   1.404       .  A
C969        S975   1.709       .  A
C970        H981   1.084       .  S
C970        C971   1.405       .  A
C971        C980   1.374       .  A
C971        C972   1.387       .  A
C972        C973   1.400       .  A
C972        S978   1.703       .  A
C973        H982   1.084       .  S
C973        C974   1.400       .  A
C974        C977   1.370       .  A
S975        C976   1.724       .  A
C976        C977   1.383       .  A
C977        H983   1.084       .  S
S978        C979   1.723       .  A
C979        C980   1.389       .  A
C980        H984   1.083       .  S
C985        C990   1.387       .  A
C985       C2178   1.400       .  A
C985       S2183   1.708       .  A
C986        H997   1.085       .  S
C986       C2177   1.404       .  A
C986       C2179   1.403       .  A
C987       C2178   1.402       .  A
C987        C996   1.368       .  A
C987        C988   1.386       .  A
C988        C989   1.404       .  A
C988        S994   1.713       .  A
C989        H998   1.085       .  S
C989        C990   1.405       .  A
C990        C993   1.372       .  A
S991       C2177   1.708   1_455  A
S991        C992   1.725       .  A
C992       C2185   1.386   1_455  A
C993        H999   1.085       .  S
C993       C2184   1.386       .  A
S994        C995   1.725       .  A
C995        C996   1.387       .  A
C996       H1000   1.085       .  S
C1001      C1006   1.387       .  A
C1001      C1002   1.402       .  A
C1001      S1007   1.707       .  A
C1002      H1013   1.085       .  S
C1002      C1003   1.403       .  A
C1003      C1012   1.370       .  A
C1003      C1004   1.387       .  A
C1004      C1005   1.397       .  A
C1004      S1010   1.701       .  A
C1005      H1014   1.085       .  S
C1005      C1006   1.399       .  A
C1006      C1009   1.366       .  A
S1007      C1008   1.724       .  A
C1008      C1009   1.384       .  A
C1009      H1015   1.085       .  S
S1010      C1011   1.721       .  A
C1011      C1012   1.386       .  A
C1012      H1016   1.084       .  S
C1017      C1022   1.387       .  A
C1017      C1018   1.403       .  A
C1017      S2215   1.709       .  A
C1018      H2221   1.083       .  S
C1018      C1019   1.404       .  A
C1019      C1028   1.373       .  A
C1019      C1020   1.386       .  A
C1020      C1021   1.404       .  A
C1020      S1026   1.711       .  A
C1021      H1030   1.083       .  S
C1021      C1022   1.405       .  A
C1022      C1025   1.373       .  A
S1023      C2209   1.709       .  A
S1023      C2216   1.724       .  A
C1024      C1955   1.482       .  S
C1024      C1025   1.387       .  A
C1024      S2215   1.724       .  A
C1025      H1031   1.083       .  S
S1026      C1027   1.725       .  A
C1027      C1028   1.389       .  A
C1028      H1032   1.083       .  S
H1029      C2210   1.083       .  S
C1033      C1034   1.408       .  A
C1033      S1039   1.715       .  A
C1034      H1045   1.084       .  S
C1035      C1044   1.373       .  A
C1035      C1036   1.388       .  A
C1036      C1037   1.397       .  A
C1036      S1042   1.699       .  A
C1037      H1046   1.086       .  S
C1037      C1038   1.398       .  A
C1038      C1041   1.366       .  A
S1039      C1040   1.725       .  A
C1041      H1047   1.085       .  S
S1042      C1043   1.723       .  A
C1043      C1044   1.387       .  A
C1044      H1048   1.084       .  S
C1049      C1054   1.387       .  A
C1049      C1050   1.404       .  A
C1049      S1055   1.712       .  A
C1050      H1061   1.083       .  S
C1050      C1051   1.406       .  A
C1051      C1060   1.371       .  A
C1051      C1052   1.387       .  A
C1052      C1053   1.397       .  A
C1052      S1058   1.704       .  A
C1053      H1062   1.084       .  S
C1053      C1054   1.398       .  A
C1054      C1057   1.365       .  A
S1055      C1056   1.723       .  A
C1056      C1057   1.381       .  A
C1057      H1063   1.084       .  S
S1058      C1059   1.721       .  A
C1059      C1060   1.390       .  A
C1060      H1064   1.083       .  S
C1065      C1070   1.388       .  A
C1065      C1066   1.399       .  A
C1065      S1071   1.706       .  A
C1066      H1077   1.084       .  S
C1066      C1067   1.401       .  A
C1067      C1076   1.367       .  A
C1067      C1068   1.387       .  A
C1068      C1069   1.402       .  A
C1068      S1074   1.708       .  A
C1069      H1078   1.084       .  S
C1069      C1070   1.403       .  A
C1072      C1073   1.382       .  A
C1073      H1079   1.084       .  S
S1074      C1075   1.724       .  A
C1075      C1076   1.385       .  A
C1076      H1080   1.084       .  S
C1081      C1086   1.387       .  A
C1081      C1082   1.403       .  A
C1081      S1087   1.709       .  A
C1082      H1093   1.083       .  S
C1082      C1083   1.404       .  A
C1083      C1092   1.372       .  A
C1083      C1084   1.387       .  A
C1084      C1085   1.399       .  A
C1084      S1090   1.704       .  A
C1085      H1094   1.084       .  S
C1085      C1086   1.400       .  A
C1086      C1089   1.367       .  A
S1087      C1088   1.721       .  A
C1088      C1089   1.385       .  A
C1089      H1095   1.083       .  S
S1090      C1091   1.722       .  A
C1091      C1092   1.388       .  A
C1092      H1096   1.083       .  S
C1097      C1102   1.387       .  A
C1097      C1098   1.404       .  A
C1097      S1103   1.710       .  A
C1098      H1109   1.084       .  S
C1098      C1099   1.405       .  A
C1099      C1108   1.373       .  A
C1099      C1100   1.386       .  A
C1100      C1101   1.402       .  A
C1100      S1106   1.709       .  A
C1101      C1102   1.403       .  A
C1104      C1105   1.390       .  A
C1105      H1111   1.083       .  S
S1106      C1107   1.723       .  A
C1107      C1108   1.390       .  A
C1108      H1112   1.083       .  S
C1113      C1118   1.388       .  A
C1113      C1114   1.403       .  A
C1113      S1119   1.709       .  A
C1114      H1125   1.085       .  S
C1114      C1115   1.403       .  A
C1115      C1124   1.372       .  A
C1115      C1116   1.387       .  A
C1116      C1117   1.400       .  A
C1116      S1122   1.704       .  A
C1117      H1126   1.085       .  S
C1117      C1118   1.400       .  A
C1118      C1121   1.369       .  A
S1119      C1120   1.721       .  A
C1120      C1121   1.384       .  A
C1121      H1127   1.085       .  S
S1122      C1123   1.723       .  A
C1123      C1124   1.387       .  A
C1124      H1128   1.084       .  S
C1129      C1134   1.387       .  A
C1129      C1130   1.402       .  A
C1129      S1135   1.708       .  A
C1130      H1141   1.083       .  S
C1130      C1131   1.403       .  A
C1131      C1140   1.371       .  A
C1131      C1132   1.387       .  A
C1132      C2325   1.399       .  A
C1132      S1138   1.704       .  A
C1133      H1142   1.083       .  S
C1133      C2324   1.397   1_455  A
C1133      C2326   1.397       .  A
C1134      C2325   1.400       .  A
C1134      C2329   1.367       .  A
S1135      C1136   1.721       .  A
C1136      C1951   1.474       .  S
C1136      C2329   1.384       .  A
C1137      H1143   1.083       .  S
C1137      C2326   1.365       .  A
C1137      C2328   1.382       .  A
S1138      C1139   1.722       .  A
C1139      C1140   1.387       .  A
C1140      H1144   1.083       .  S
C1145      C1150   1.387       .  A
C1145      C1146   1.400       .  A
C1145      S1151   1.704       .  A
C1146      H1157   1.084       .  S
C1146      C1147   1.401       .  A
C1147      C1156   1.368       .  A
C1147      C1148   1.387       .  A
C1148      C1149   1.401       .  A
C1148      S1154   1.708       .  A
C1149      H1158   1.084       .  S
C1149      C1150   1.402       .  A
C1150      C1153   1.371       .  A
S1151      C1152   1.724       .  A
C1152      C1153   1.386       .  A
C1153      H1159   1.084       .  S
S1154      C1155   1.722       .  A
C1155      C1156   1.384       .  A
C1156      H1160   1.084       .  S
C1161      C1166   1.387       .  A
C1161      C1162   1.401       .  A
C1161      S1167   1.706       .  A
C1162      H1173   1.084       .  S
C1162      C1163   1.402       .  A
C1163      C1172   1.370       .  A
C1163      C1164   1.387       .  A
C1164      C1165   1.403       .  A
C1164      S1170   1.709       .  A
C1165      H1174   1.083       .  S
C1165      C1166   1.404       .  A
C1166      C1169   1.372       .  A
S1167      C1168   1.725       .  A
C1168      C1169   1.389       .  A
C1169      H1175   1.083       .  S
S1170      C1171   1.722       .  A
C1171      C1172   1.384       .  A
C1172      H1176   1.084       .  S
C1177      C1182   1.387       .  A
C1177      C1178   1.400       .  A
C1177      S1183   1.706       .  A
C1178      H1189   1.084       .  S
C1178      C1179   1.401       .  A
C1179      C1188   1.369       .  A
C1179      C2372   1.387       .  A
C1180      C2371   1.387   1_455  A
C1180      C1181   1.404       .  A
C1180      S1186   1.711       .  A
C1181      H1190   1.083       .  S
C1181      C2374   1.405   1_455  A
C1182      C2373   1.407       .  A
C1182      C1185   1.375       .  A
S1183      C1184   1.722       .  A
C1184      C1185   1.390       .  A
C1185      H1191   1.083       .  S
S1186      C1187   1.722       .  A
C1187      C2380   1.384   1_455  A
C1188      H1192   1.084       .  S
C1188      C2379   1.385       .  A
C1193      N1194   1.360       .  A
C1193      N1198   1.360       .  A
C1193      C1780   1.476       .  S
N1194      C1195   1.357       .  A
C1195      N1196   1.353       .  A
C1195      C1324   1.463       .  S
N1196      C1197   1.355       .  A
C1197      N1198   1.361       .  A
C1197      C1217   1.460       .  S
C1199      N1200   1.362       .  A
C1199      N1204   1.364       .  A
C1199      C1764   1.478       .  S
N1200      C1201   1.357       .  A
C1201      N1202   1.354       .  A
C1201      C1294   1.467       .  S
N1202      C1203   1.356       .  A
C1203      N1204   1.362       .  A
C1203      C1247   1.467       .  S
C1205      N1206   1.359       .  A
C1205      N1210   1.358       .  A
C1205      C1748   1.471       .  S
N1206      C1207   1.358       .  A
C1207      N1208   1.359       .  A
C1207      C1267   1.462       .  S
N1208      C1209   1.358       .  A
C1209      N1210   1.355       .  A
C1209      C1334   1.463       .  S
C1211      N1212   1.356       .  A
C1211      N1216   1.354       .  A
C1211      C1735   1.470       .  S
N1212      C1213   1.359       .  A
C1213      N1214   1.361       .  A
C1213      C1344   1.463       .  S
N1214      C1215   1.359       .  A
C1215      N1216   1.356       .  A
C1215      C1257   1.465       .  S
C1217      C1254   1.459       .  S
N1218      N1235   1.326       .  A
N1218     Co1255   2.082       .  S
C1219      N1244   1.335       .  A
C1219      H1264   1.081       .  S
H1220      C1261   1.080       .  S
C1221      N1245   1.338       .  A
C1221      C1225   1.454       .  S
C1221      H1250   1.081       .  S
Co1222     N1240   2.091       .  S
Co1222     N1230   2.081       .  S
Co1222     N1858   2.071       .  S
Co1222     N1834   2.096       .  S
N1223      C1261   1.346       .  A
N1223     Co1224   2.089       .  S
Co1224     N1227   2.078       .  S
Co1224     N1840   2.071       .  S
Co1224     N1827   2.089       .  S
Co1224    Cl1266   2.472       .  S
C1225      N1263   1.349       .  A
C1225      C1272   1.461       .  S
N1226      N1233   1.319       .  A
N1226      N1256   1.323       .  A
N1226     Co1259   2.078       .  S
N1227      N1245   1.321       .  A
N1227      N1263   1.325       .  A
N1228      C1257   1.352       .  A
N1228      N1238   1.328       .  A
H1229      C1254   1.081       .  S
N1230      N1251   1.322       .  A
N1231      N1249   1.319       .  A
N1231      N1236   1.325       .  A
N1231     Co1820   2.084   1_545  S
C1232      N1236   1.349       .  A
C1232      C1260   1.457       .  S
C1232      C1290   1.464       .  S
N1233      C1248   1.342       .  A
N1233     Co1255   2.087       .  S
C1234      N1262   1.336       .  A
C1234      C1237   1.453       .  S
C1234      H1268   1.082       .  S
C1237      C1278   1.464       .  S
N1238     Co1818   2.099   1_545  S
N1239      C1265   1.343       .  A
N1239      N1241   1.322       .  A
N1239     Co1851   2.089   1_545  S
N1240      C1254   1.340       .  A
N1241      N1269   1.324       .  A
N1241     Co1855   2.087   1_545  S
H1242      C1265   1.081       .  S
H1243      C1260   1.082       .  S
N1244     Co1820   2.068   1_545  S
N1245     Co1259   2.083       .  S
N1246      N1258   1.329       .  A
N1246     Co1851   2.097   1_545  S
C1247      N1251   1.347       .  A
C1248      C1267   1.460       .  S
C1248      H1252   1.081       .  S
N1249      C1260   1.340       .  A
N1249     Co1855   2.082   1_545  S
C1253      N1269   1.348       .  A
C1253      C1265   1.460       .  S
C1253      C1286   1.467       .  S
Co1255     N1835   2.088       .  S
Co1255     N1842   2.089       .  S
Co1255    Cl1266   2.475       .  S
N1256      C1267   1.347       .  A
Co1259     N1837   2.088       .  S
Co1259     N1845   2.076       .  S
Co1259    Cl1266   2.430       .  S
N1262     Co1818   2.075   1_545  S
C1270      N1271   1.358       .  A
C1270      N1275   1.361       .  A
C1270      C1719   1.470       .  S
N1271      C1272   1.354       .  A
C1272      N1273   1.353       .  A
N1273      C1274   1.355       .  A
C1274      N1275   1.360       .  A
C1274      C1314   1.463       .  S
C1276      N1277   1.362       .  A
C1276      N1281   1.362       .  A
C1276      C1703   1.475       .  S
N1277      C1278   1.359       .  A
C1278      N1279   1.354       .  A
N1279      C1280   1.354       .  A
C1280      N1281   1.358       .  A
C1280      C1302   1.464       .  S
C1282      N1283   1.359       .  A
C1282      N1287   1.360       .  A
C1282      C1687   1.475       .  S
N1283      C1284   1.358       .  A
C1284      N1285   1.357       .  A
C1284      C1309   1.468       .  S
N1285      C1286   1.358       .  A
C1286      N1287   1.359       .  A
C1288      N1289   1.360       .  A
C1288      N1293   1.362       .  A
C1288      C1671   1.476       .  S
N1289      C1290   1.357       .  A
C1290      N1291   1.355       .  A
N1291      C1292   1.356       .  A
C1292      N1293   1.359       .  A
C1292      C1330   1.463       .  S
C1294      N1312   1.350       .  A
C1294      C1331   1.457       .  S
N1295      N1312   1.327       .  A
N1295      N1317   1.320       .  A
N1295     Co1332   2.091       .  S
C1296      N1321   1.343       .  A
C1296      C1334   1.461       .  S
C1296      H1341   1.080       .  S
H1297      C1338   1.081       .  S
C1298      N1322   1.336       .  A
C1298      C1302   1.452       .  S
C1298      H1327   1.082       .  S
Co1299     N1317   2.081       .  S
Co1299     N1307   2.095       .  S
Co1299     N1339   2.089       .  S
Co1299     N1315   2.079       .  S
Co1299    Cl1343   2.431       .  S
N1300      C1338   1.339       .  A
N1300      N1307   1.321       .  A
N1300     Co1301   2.073       .  S
Co1301     N1304   2.091       .  S
Co1301     N1321   2.087       .  S
Co1301     N1308   2.077       .  S
Co1301    Cl1343   2.471       .  S
C1302      N1340   1.352       .  A
N1303      N1310   1.321       .  A
N1303      N1333   1.325       .  A
N1303     Co1336   2.092       .  S
N1304      N1322   1.319       .  A
N1304      N1340   1.328       .  A
N1305      C1334   1.347       .  A
N1305      N1315   1.323       .  A
H1306      C1331   1.081       .  S
N1307      N1328   1.325       .  A
N1308      N1326   1.321       .  A
N1308      N1313   1.324       .  A
C1309      N1313   1.348       .  A
C1309      C1337   1.461       .  S
N1310      C1325   1.338       .  A
N1310     Co1332   2.075       .  S
C1311      N1339   1.338       .  A
C1311      C1314   1.456       .  S
C1311      H1345   1.081       .  S
C1314      N1335   1.349       .  A
N1315      N1321   1.319       .  A
N1316      C1342   1.346       .  A
N1316      N1318   1.320       .  A
N1316     Co1332   2.091       .  S
N1317      C1331   1.340       .  A
N1318      N1346   1.321       .  A
N1318     Co1336   2.073       .  S
H1319      C1342   1.080       .  S
H1320      C1337   1.081       .  S
N1322     Co1336   2.071       .  S
N1323      N1335   1.326       .  A
N1323      N1339   1.322       .  A
N1323     Co1332   2.079       .  S
C1324      N1328   1.351       .  A
C1324      C1338   1.454       .  S
C1325      C1344   1.456       .  S
C1325      H1329   1.080       .  S
N1326      C1337   1.343       .  A
N1326     Co1336   2.096       .  S
C1330      N1346   1.345       .  A
C1330      C1342   1.462       .  S
Co1332    Cl1343   2.472       .  S
N1333      C1344   1.349       .  A
Co1336    Cl1343   2.429       .  S
C1347      C1700   1.484       .  S
C1347      C1348   1.415       .  A
C1347      C1352   1.405       .  A
C1348      C1751   1.477       .  S
C1348      C1349   1.404       .  A
C1349      H1354   1.085       .  S
C1349      C1350   1.401       .  A
C1350      C1652   1.482       .  S
C1350      C1351   1.417       .  A
C1351      C1636   1.481       .  S
C1351      C1352   1.405       .  A
C1352      H1949   1.085       .  S
H1353      C1948   1.085   1_545  S
C1355      C1356   1.411       .  A
C1356      C1716   1.475       .  S
C1356      C1357   1.399       .  A
C1357      H1362   1.085       .  S
C1357      C1358   1.404   1_554  A
C1358      C1607   1.480       .  S
C1358      C1359   1.419       .  A
C1360      H1361   1.085   1_455  S
C1363      C1684   1.479       .  S
C1363      C1364   1.415       .  A
C1363      C1368   1.403       .  A
C1364      C1783   1.482       .  S
C1364      C1365   1.403       .  A
C1365      C1366   1.405       .  A
C1366      C1588   1.475       .  S
C1366      C1367   1.414       .  A
C1367      C1572   1.480       .  S
C1367      C1368   1.403       .  A
C1368      H1369   1.085       .  S
C1371      C1767   1.481       .  S
C1371      C1372   1.416       .  A
C1371      C1376   1.404       .  A
C1372      C1668   1.473       .  S
C1372      C1373   1.403       .  A
C1373      H1974   1.085       .  S
C1373      C1374   1.396       .  A
C1374      C1540   1.470   1_554  S
C1374      C1375   1.409       .  A
C1375      C1559   1.471   1_554  S
C1375      C1376   1.401       .  A
C1376      H1377   1.085       .  S
H1378      C1969   1.085   1_545  S
C1379      N1380   1.357       .  A
C1379      N1384   1.359       .  A
C1379      C1556   1.471       .  S
N1380      C1381   1.356       .  A
C1381      N1382   1.355       .  A
C1381      C1510   1.462       .  S
N1382      C1383   1.357       .  A
C1383      N1384   1.358       .  A
C1383      C1415   1.460       .  S
C1385      N1386   1.363       .  A
C1385      N1390   1.365       .  A
C1385      C1623   1.478       .  S
N1386      C1387   1.358       .  A
C1387      N1388   1.354       .  A
C1387      C1435   1.464       .  S
N1388      C1389   1.352       .  A
C1389      N1390   1.361       .  A
C1389      C1488   1.467       .  S
C1391      N1392   1.363       .  A
C1391      N1396   1.359       .  A
C1391      C1543   1.480       .  S
N1392      C1393   1.362       .  A
C1393      N1394   1.357       .  A
C1393      C1451   1.469       .  S
N1394      C1395   1.355       .  A
C1395      N1396   1.358       .  A
C1395      C1495   1.464       .  S
C1397      N1398   1.359       .  A
C1397      N1402   1.361       .  A
C1397      C1604   1.474       .  S
N1398      C1399   1.358       .  A
C1399      N1400   1.359       .  A
C1399      C1465   1.466       .  S
N1400      C1401   1.358       .  A
C1401      N1402   1.358       .  A
C1401      C1520   1.468       .  S
C1403      N1404   1.360       .  A
C1403      N1408   1.363       .  A
C1403      C1575   1.478       .  S
N1404      C1405   1.356       .  A
C1405      N1406   1.354       .  A
C1405      C1430   1.463       .  S
N1406      C1407   1.356       .  A
C1407      N1408   1.361       .  A
C1407      C1516   1.464       .  S
C1409      N1410   1.359       .  A
C1409      N1414   1.354       .  A
C1409      C1639   1.472       .  S
N1410      C1411   1.362       .  A
C1411      N1412   1.361       .  A
C1411      C1530   1.465       .  S
N1412      C1413   1.357       .  A
C1413      N1414   1.354       .  A
C1413      C1455   1.464       .  S
C1415      N1433   1.348       .  A
C1415      C1452   1.455       .  S
N1416      N1433   1.324       .  A
N1416      N1438   1.321       .  A
N1416     Co1453   2.077       .  S
C1417      N1442   1.335       .  A
C1417      C1455   1.453       .  S
C1417      H1462   1.081       .  S
H1418      C1459   1.080       .  S
C1419      N1443   1.339       .  A
C1419      C1423   1.459       .  S
C1419      H1448   1.082       .  S
Co1420     N1438   2.084       .  S
Co1420     N1428   2.081       .  S
Co1420     N1460   2.074       .  S
Co1420     N1436   2.093       .  S
Co1420    Cl1464   2.433       .  S
N1421      C1459   1.343       .  A
N1421      N1428   1.319       .  A
N1421     Co1422   2.083       .  S
Co1422     N1425   2.080       .  S
Co1422     N1442   2.072       .  S
Co1422     N1429   2.083       .  S
Co1422    Cl1464   2.468       .  S
C1423      N1461   1.349       .  A
C1423      C1476   1.470       .  S
N1424      N1431   1.320       .  A
N1424      N1454   1.324       .  A
N1424     Co1457   2.084       .  S
N1425      N1443   1.321       .  A
N1425      N1461   1.328       .  A
N1426      C1455   1.351       .  A
N1426      N1436   1.328       .  A
H1427      C1452   1.081       .  S
N1428      N1449   1.323       .  A
N1429      N1447   1.319       .  A
N1429      N1434   1.325       .  A
C1430      N1434   1.349       .  A
C1430      C1458   1.457       .  S
N1431      C1446   1.343       .  A
N1431     Co1453   2.089       .  S
C1432      N1460   1.335       .  A
C1432      C1435   1.452       .  S
C1432      H1466   1.082       .  S
C1435      N1456   1.352       .  A
N1436      N1442   1.320       .  A
N1437      C1463   1.342       .  A
N1437      N1439   1.321       .  A
N1437     Co1453   2.079       .  S
N1438      C1452   1.338       .  A
N1439      N1467   1.325       .  A
N1439     Co1457   2.100       .  S
H1440      C1463   1.081       .  S
H1441      C1458   1.082       .  S
N1443     Co1457   2.096       .  S
N1444      N1456   1.329       .  A
N1444      N1460   1.320       .  A
N1444     Co1453   2.092       .  S
C1445      N1449   1.347       .  A
C1445      C1459   1.459       .  S
C1445      C1470   1.462       .  S
C1446      C1465   1.461       .  S
C1446      H1450   1.080       .  S
N1447      C1458   1.340       .  A
N1447     Co1457   2.082       .  S
C1451      N1467   1.351       .  A
C1451      C1463   1.457       .  S
Co1453    Cl1464   2.473       .  S
N1454      C1465   1.348       .  A
Co1457    Cl1464   2.431       .  S
C1468      N1469   1.361       .  A
C1468      N1473   1.360       .  A
C1468      C1591   1.474       .  S
N1469      C1470   1.356       .  A
C1470      N1471   1.354       .  A
N1471      C1472   1.356       .  A
C1472      N1473   1.359       .  A
C1472      C1480   1.459       .  S
C1474      N1475   1.365       .  A
C1474      N1479   1.363       .  A
C1474      C1655   1.482       .  S
N1475      C1476   1.361       .  A
C1476      N1477   1.353       .  A
N1477      C1478   1.353       .  A
C1478      N1479   1.361       .  A
C1478      C1500   1.466       .  S
C1480      N1498   1.350       .  A
C1480      C1517   1.452       .  S
N1481      N1498   1.326       .  A
N1481      N1503   1.320       .  A
C1482      N1507   1.343       .  A
C1482      C1520   1.460       .  S
C1482      H1527   1.080       .  S
H1483      C1524   1.081       .  S
C1484      N1508   1.339       .  A
C1484      C1488   1.457       .  S
C1484      H1513   1.082       .  S
Co1485     N1525   2.097       .  S
Co1485     N1501   2.085       .  S
Co1485    Cl1529   2.433       .  S
N1486      C1524   1.338       .  A
N1486      N1493   1.321       .  A
Co1487     N1507   2.087       .  S
Co1487     N2090   2.075       .  S
Co1487    Cl1529   2.471       .  S
C1488      N1526   1.349       .  A
N1489      N1496   1.322       .  A
N1489      N1519   1.325       .  A
N1490      N1508   1.320       .  A
N1490      N1526   1.328       .  A
N1491      C1520   1.349       .  A
N1491      N1501   1.325       .  A
H1492      C1517   1.082       .  S
N1493      N1514   1.326       .  A
N1494      N1512   1.321       .  A
N1494      N1499   1.323       .  A
N1494     Co2083   2.073   1_545  S
C1495      N1499   1.347       .  A
C1495      C1523   1.460       .  S
N1496      C1511   1.340       .  A
C1497      N1525   1.340       .  A
C1497      C1500   1.460       .  S
C1497      H1531   1.081       .  S
C1500      N1521   1.347       .  A
N1501      N1507   1.319       .  A
N1502      C1528   1.346       .  A
N1502      N1504   1.320       .  A
N1502     Co2114   2.091   1_545  S
N1503      C1517   1.336       .  A
N1504      N1532   1.322       .  A
N1504     Co1522   2.082       .  S
H1505      C1528   1.080   1_565  S
H1506      C1523   1.081       .  S
N1509      N1521   1.325       .  A
N1509      N1525   1.322       .  A
N1509     Co1518   2.077       .  S
C1510      N1514   1.351       .  A
C1510      C1524   1.453       .  S
C1511      C1530   1.456       .  S
C1511      H1515   1.081   1_545  S
N1512      C1523   1.342       .  A
N1512     Co1522   2.094       .  S
C1516      N1532   1.347       .  A
C1516      C1528   1.462       .  S
Co1518     N2098   2.092       .  S
Co1518    Cl1529   2.474       .  S
N1519      C1530   1.350       .  A
Co1522    Cl2125   2.431   1_545  S
Cl1529    Co2118   2.431       .  S
C1533      C1538   1.387   1_545  A
C1533      C1534   1.403       .  A
C1533      S2135   1.710       .  A
C1534      H1545   1.084       .  S
C1534      C1535   1.403       .  A
C1535      C1544   1.374       .  A
C1535      C1536   1.386       .  A
C1536      C1537   1.405   1_545  A
C1536      S1542   1.710       .  A
C1537      H1546   1.083       .  S
C1537      C1538   1.406       .  A
C1538      C1541   1.374       .  A
S1539      C2129   1.710       .  A
S1539      C1540   1.721       .  A
C1540      C2137   1.380       .  A
C1541      H1547   1.083       .  S
C1541      C2136   1.389       .  A
S1542      C1543   1.727       .  A
C1543      C1544   1.388       .  A
C1544      H1548   1.083       .  S
C1549      C1554   1.387       .  A
C1549      C1550   1.399       .  A
C1549      S1555   1.703       .  A
C1550      H1561   1.084       .  S
C1550      C1551   1.399       .  A
C1551      C1560   1.367       .  A
C1551      C1552   1.388       .  A
C1552      C1553   1.402       .  A
C1552      S1558   1.707       .  A
C1553      H1562   1.084       .  S
C1553      C1554   1.403       .  A
C1554      C1557   1.371       .  A
S1555      C1556   1.722       .  A
C1556      C1557   1.387       .  A
C1557      H1563   1.083       .  S
S1558      C1559   1.721       .  A
C1559      C1560   1.381       .  A
C1560      H1564   1.084       .  S
C1565      C1570   1.387       .  A
C1565      C1566   1.406       .  A
C1565      S1571   1.711       .  A
C1566      H1577   1.084       .  S
C1566      C1567   1.406       .  A
C1567      C1576   1.376       .  A
C1567      C1568   1.387       .  A
C1568      C1569   1.401       .  A
C1568      S1574   1.704       .  A
C1569      H1578   1.084       .  S
C1569      C1570   1.401       .  A
C1570      C1573   1.372       .  A
S1571      C1572   1.725       .  A
C1572      C1573   1.385       .  A
C1573      H1579   1.084       .  S
S1574      C1575   1.725       .  A
C1575      C1576   1.390       .  A
C1576      H1580   1.083       .  S
C1581      C1586   1.387       .  A
C1582      H1593   1.085       .  S
C1583      C1592   1.374       .  A
C1583      C1584   1.387       .  A
C1584      C1585   1.398       .  A
C1584      S1590   1.701       .  A
C1585      H1594   1.086       .  S
C1585      C1586   1.398       .  A
C1586      C1589   1.367       .  A
S1587      C1588   1.722       .  A
C1589      H1595   1.085       .  S
S1590      C1591   1.722       .  A
C1591      C1592   1.390       .  A
C1592      H1596   1.084       .  S
C1597      C1602   1.387       .  A
C1597      C1598   1.405       .  A
C1597      S1603   1.712       .  A
C1598      H1609   1.085       .  S
C1598      C1599   1.406       .  A
C1599      C1608   1.373       .  A
C1599      C1600   1.387       .  A
C1600      C1601   1.398       .  A
C1600      S1606   1.704       .  A
C1601      H1610   1.085       .  S
C1601      C1602   1.400       .  A
C1602      C1605   1.368       .  A
S1603      C1604   1.726       .  A
C1604      C1605   1.385       .  A
C1605      H1611   1.085       .  S
S1606      C1607   1.721       .  A
C1607      C1608   1.389       .  A
C1608      H1612   1.084       .  S
C1613      C1618   1.387       .  A
C1613      C1614   1.403       .  A
C1614      C1615   1.404       .  A
C1615      C1624   1.373       .  A
C1615      C1616   1.386       .  A
C1616      C1617   1.405       .  A
C1616      S1622   1.711       .  A
C1617      H1626   1.083       .  S
C1617      C1618   1.405       .  A
C1618      C1621   1.375       .  A
C1620      C1621   1.388   1_455  A
C1621      H1627   1.083       .  S
S1622      C1623   1.726       .  A
C1623      C1624   1.388       .  A
C1624      H1628   1.083       .  S
C1629      C2230   1.386       .  A
C1629      C1630   1.405       .  A
C1629      S1635   1.712       .  A
C1630      H1641   1.084       .  S
C1630      C2227   1.406       .  A
C1631      C2226   1.405       .  A
C1631      C1640   1.374       .  A
C1631      C1632   1.387       .  A
C1632      C1633   1.398       .  A
C1632      S1638   1.702       .  A
C1633      H1642   1.086       .  S
C1633      C1634   1.399       .  A
C1634      C2225   1.387       .  A
C1634      C1637   1.367       .  A
S1635      C1636   1.725       .  A
C1636      C2233   1.385       .  A
C1637      H1643   1.085       .  S
C1637      C2232   1.385   1_545  A
S1638      C1639   1.722       .  A
C1639      C1640   1.388       .  A
C1640      H1644   1.084       .  S
C1645      C1650   1.387       .  A
C1645      C1646   1.407       .  A
C1645      S1651   1.713       .  A
C1646      H1657   1.083       .  S
C1646      C1647   1.408       .  A
C1647      C1656   1.377       .  A
C1647      C1648   1.386       .  A
C1648      C1649   1.401       .  A
C1648      S1654   1.707       .  A
C1649      H1658   1.083       .  S
C1649      C1650   1.401       .  A
C1650      C1653   1.370       .  A
S1651      C1652   1.724       .  A
C1652      C1653   1.386       .  A
C1653      H1659   1.083       .  S
S1654      C1655   1.723       .  A
C1655      C1656   1.392       .  A
C1656      H1660   1.083       .  S
C1661      C1666   1.388       .  A
C1661      C1662   1.402       .  A
C1661      S1667   1.710       .  A
C1662      H1673   1.084       .  S
C1662      C1663   1.404       .  A
C1663      C1672   1.372       .  A
C1663      C1664   1.387       .  A
C1664      C1665   1.401       .  A
C1664      S1670   1.706       .  A
C1665      H1674   1.084   1_545  S
C1665      C1666   1.402       .  A
C1666      C2265   1.369   1_545  A
S1667      C2264   1.720   1_545  A
C1668      C1669   1.384       .  A
C1668      S2263   1.722       .  A
C1669      H1675   1.084       .  S
C1669      C2262   1.368       .  A
S1670      C1671   1.725       .  A
C1671      C1672   1.388       .  A
C1672      H1676   1.084       .  S
C1677      C1682   1.387       .  A
C1677      C1678   1.403       .  A
C1677      S1683   1.710       .  A
C1678      H1689   1.083       .  S
C1678      C1679   1.404       .  A
C1679      C1688   1.372       .  A
C1679      C1680   1.387       .  A
C1680      C1681   1.401       .  A
C1680      S1686   1.707       .  A
C1681      H1690   1.084       .  S
C1681      C1682   1.402       .  A
C1682      C1685   1.369       .  A
S1683      C1684   1.722       .  A
C1684      C1685   1.386       .  A
C1685      H1691   1.084       .  S
S1686      C1687   1.724       .  A
C1687      C1688   1.388       .  A
C1688      H1692   1.083       .  S
C1693      C1698   1.386       .  A
C1693      C1694   1.401       .  A
C1693      S1699   1.706       .  A
C1694      H1705   1.084       .  S
C1694      C1695   1.402       .  A
C1695      C1704   1.370       .  A
C1695      C1696   1.386       .  A
C1696      C1697   1.405       .  A
C1696      S1702   1.712       .  A
C1697      H2302   1.084       .  S
C1697      C1698   1.406       .  A
C1698      C2297   1.375       .  A
S1699      C2296   1.725   1_545  A
C1700      C1701   1.388       .  A
C1700      S2295   1.725       .  A
C1701      H1707   1.084       .  S
C1701      C2294   1.373       .  A
S1702      C1703   1.724       .  A
C1703      C1704   1.387       .  A
C1704      H1708   1.084       .  S
H1706      C2293   1.084       .  S
C1709      C1714   1.387       .  A
C1709      C1710   1.403       .  A
C1709      S1715   1.709       .  A
C1710      H1721   1.085       .  S
C1710      C1711   1.403       .  A
C1711      C1720   1.372       .  A
C1711      C1712   1.387       .  A
C1712      C1713   1.398       .  A
C1712      S1718   1.702       .  A
C1713      H1722   1.085       .  S
C1713      C1714   1.399       .  A
C1714      C1717   1.367       .  A
S1715      C1716   1.721       .  A
C1716      C1717   1.383       .  A
C1717      H1723   1.085       .  S
S1718      C1719   1.722       .  A
C1719      C1720   1.387       .  A
C1720      H1724   1.084       .  S
C1725      C1730   1.387   1_655  A
C1725      C1726   1.402       .  A
C1725      S1731   1.709       .  A
C1726      H1737   1.083       .  S
C1726      C1727   1.403       .  A
C1727      C1736   1.370       .  A
C1727      C1728   1.387       .  A
C1728      S1734   1.704   1_655  A
C1729      H1738   1.083       .  S
S1731      C1732   1.721   1_655  A
C1733      H1739   1.083       .  S
S1734      C1735   1.723   1_455  A
C1735      C1736   1.386       .  A
C1736      H1740   1.083       .  S
C1741      C1746   1.387       .  A
C1741      C1742   1.399       .  A
C1741      S1747   1.702       .  A
C1742      H1753   1.084       .  S
C1742      C1743   1.399       .  A
C1743      C1752   1.367       .  A
C1743      C1744   1.387       .  A
C1744      C1745   1.404       .  A
C1744      S1750   1.710       .  A
C1745      H1754   1.084       .  S
C1745      C1746   1.404       .  A
C1746      C1749   1.373       .  A
S1747      C1748   1.722       .  A
C1748      C1749   1.388       .  A
C1749      H1755   1.083       .  S
S1750      C1751   1.723       .  A
C1751      C1752   1.384       .  A
C1752      H1756   1.084       .  S
C1757      C1762   1.386       .  A
C1757      C1758   1.406       .  A
C1757      S1763   1.715       .  A
C1758      H1769   1.083       .  S
C1758      C1759   1.407       .  A
C1759      C1768   1.374       .  A
C1759      C1760   1.387       .  A
C1760      C1761   1.400       .  A
C1760      S1766   1.706       .  A
C1761      H1770   1.084       .  S
C1761      C1762   1.401       .  A
C1762      C1765   1.369       .  A
S1763      C1764   1.726       .  A
C1764      C1765   1.387       .  A
C1765      H1771   1.084       .  S
S1766      C1767   1.722       .  A
C1767      C1768   1.389       .  A
C1768      H1772   1.083       .  S
C1773      C1778   1.387       .  A
C1773      C1774   1.399       .  A
C1773      S1779   1.704       .  A
C1774      H1785   1.084       .  S
C1774      C1775   1.399       .  A
C1775      C1784   1.367       .  A
C1776      C1777   1.406       .  A
C1776      S1782   1.714       .  A
C1777      H1786   1.083       .  S
C1778      C1781   1.377       .  A
S1779      C1780   1.721       .  A
C1780      C1781   1.391       .  A
C1781      H1787   1.083       .  S
S1782      C1783   1.724       .  A
C1784      H1788   1.084       .  S
C1789      N1790   1.358       .  A
C1789      N1794   1.362       .  A
C1789      C2376   1.475       .  S
N1790      C1791   1.356       .  A
C1791      N1792   1.356       .  A
C1791      C1920   1.467       .  S
N1792      C1793   1.358       .  A
C1793      N1794   1.361       .  A
C1793      C1813   1.467       .  S
C1795      N1796   1.363       .  A
C1795      N1800   1.360       .  A
C1795      C2360   1.478       .  S
N1796      C1797   1.360       .  A
C1797      N1798   1.357       .  A
C1797      C1890   1.468       .  S
N1798      C1799   1.356       .  A
C1799      N1800   1.356       .  A
C1799      C1843   1.466       .  S
C1801      N1802   1.360       .  A
C1801      N1806   1.359       .  A
C1801      C2344   1.475       .  S
N1802      C1803   1.359       .  A
C1803      N1804   1.359       .  A
C1803      C1863   1.466       .  S
N1804      C1805   1.358       .  A
C1805      N1806   1.357       .  A
C1805      C1930   1.467       .  S
C1807      N1808   1.357       .  A
C1807      N1812   1.354       .  A
C1807      C2331   1.470       .  S
N1808      C1809   1.360       .  A
C1809      N1810   1.362       .  A
C1809      C1940   1.466       .  S
N1810      C1811   1.360       .  A
C1811      N1812   1.354       .  A
C1811      C1853   1.466       .  S
C1813      C1850   1.457       .  S
N1814      N1831   1.325       .  A
N1814     Co1851   2.088       .  S
C1815      N1840   1.336       .  A
C1815      H1860   1.081       .  S
H1816      C1857   1.081       .  S
C1817      N1841   1.338       .  A
C1817      C1821   1.454       .  S
C1817      H1846   1.081       .  S
Co1818     N1836   2.091       .  S
Co1818     N1826   2.084       .  S
N1819      C1857   1.344       .  A
N1819     Co1820   2.087       .  S
Co1820     N1823   2.074       .  S
Co1820    Cl1862   2.467       .  S
C1821      N1859   1.348       .  A
C1821      C1868   1.459       .  S
N1822      N1829   1.320       .  A
N1822      N1852   1.324       .  A
N1822     Co1855   2.080       .  S
N1823      N1841   1.321       .  A
N1823      N1859   1.324       .  A
N1824      C1853   1.351       .  A
N1824      N1834   1.328       .  A
H1825      C1850   1.081       .  S
N1826      N1847   1.324       .  A
N1827      N1845   1.319       .  A
N1827      N1832   1.326       .  A
C1828      N1832   1.351       .  A
C1828      C1856   1.455       .  S
C1828      C1886   1.464       .  S
N1829      C1844   1.344       .  A
N1829     Co1851   2.092       .  S
C1830      N1858   1.335       .  A
C1830      C1833   1.452       .  S
C1830      H1864   1.082       .  S
C1833      C1874   1.463       .  S
N1835      C1861   1.343       .  A
N1835      N1837   1.321       .  A
N1836      C1850   1.339       .  A
N1837      N1865   1.324       .  A
H1838      C1861   1.081       .  S
H1839      C1856   1.082       .  S
N1841     Co1855   2.082       .  S
N1842      N1854   1.328       .  A
C1843      N1847   1.348       .  A
C1844      C1863   1.462       .  S
C1844      H1848   1.081       .  S
N1845      C1856   1.338       .  A
C1849      N1865   1.348       .  A
C1849      C1861   1.461       .  S
C1849      C1882   1.469       .  S
Co1851    Cl1862   2.473       .  S
N1852      C1863   1.347       .  A
Co1855    Cl1862   2.431       .  S
C1866      N1867   1.358       .  A
C1866      N1871   1.363       .  A
C1866      C2315   1.471       .  S
N1867      C1868   1.355       .  A
C1868      N1869   1.353       .  A
N1869      C1870   1.354       .  A
C1870      N1871   1.361       .  A
C1870      C1910   1.465       .  S
C1872      N1873   1.363       .  A
C1872      N1877   1.362       .  A
C1872      C2299   1.475       .  S
N1873      C1874   1.360       .  A
C1874      N1875   1.354       .  A
N1875      C1876   1.352       .  A
C1876      N1877   1.357       .  A
C1876      C1898   1.463       .  S
C1878      N1879   1.355       .  A
C1878      N1883   1.361       .  A
C1878      C2283   1.467       .  S
N1879      C1880   1.353       .  A
C1880      N1881   1.358       .  A
C1880      C1905   1.465       .  S
N1881      C1882   1.360       .  A
C1882      N1883   1.361       .  A
C1884      N1885   1.359       .  A
C1884      N1889   1.361       .  A
C1884      C2267   1.471       .  S
N1885      C1886   1.357       .  A
C1886      N1887   1.356       .  A
N1887      C1888   1.356       .  A
C1888      N1889   1.358       .  A
C1888      C1926   1.462       .  S
C1890      N1908   1.352       .  A
C1890      C1927   1.454       .  S
N1891      N1908   1.328       .  A
N1891      N1913   1.320       .  A
N1891     Co1928   2.094       .  S
C1892      N1917   1.343       .  A
C1892      C1930   1.460       .  S
C1892      H1937   1.080       .  S
H1893      C1934   1.081       .  S
C1894      N1918   1.337       .  A
C1894      C1898   1.454       .  S
C1894      H1923   1.082       .  S
Co1895     N1913   2.079       .  S
Co1895     N1903   2.096       .  S
Co1895     N1935   2.090       .  S
Co1895     N1911   2.084       .  S
Co1895    Cl1939   2.433       .  S
N1896      C1934   1.340       .  A
N1896      N1903   1.321       .  A
N1896     Co1897   2.081       .  S
Co1897     N1900   2.088       .  S
Co1897     N1917   2.087       .  S
Co1897     N1904   2.085       .  S
Co1897    Cl1939   2.469       .  S
C1898      N1936   1.350       .  A
N1899      N1906   1.321       .  A
N1899      N1929   1.326       .  A
N1899     Co1932   2.092       .  S
N1900      N1918   1.319       .  A
N1900      N1936   1.327       .  A
N1901      C1930   1.349       .  A
N1901      N1911   1.325       .  A
H1902      C1927   1.082       .  S
N1903      N1924   1.326       .  A
N1904      N1922   1.321       .  A
N1904      N1909   1.324       .  A
C1905      N1909   1.350       .  A
C1905      C1933   1.456       .  S
N1906      C1921   1.339       .  A
N1906     Co1928   2.079       .  S
C1907      N1935   1.338       .  A
C1907      C1910   1.457       .  S
C1907      H1941   1.081       .  S
C1910      N1931   1.349       .  A
N1911      N1917   1.319       .  A
N1912      C1938   1.345       .  A
N1912      N1914   1.319       .  A
N1912     Co1928   2.090       .  S
N1913      C1927   1.338       .  A
N1914      N1942   1.322       .  A
N1914     Co1932   2.073       .  S
H1915      C1938   1.080       .  S
H1916      C1933   1.081       .  S
N1918     Co1932   2.075       .  S
N1919      N1931   1.326       .  A
N1919      N1935   1.322       .  A
N1919     Co1928   2.082       .  S
C1920      N1924   1.350       .  A
C1920      C1934   1.457       .  S
C1921      C1940   1.456       .  S
C1921      H1925   1.081       .  S
N1922      C1933   1.341       .  A
N1922     Co1932   2.087       .  S
C1926      N1942   1.345       .  A
C1926      C1938   1.462       .  S
Co1928    Cl1939   2.473       .  S
N1929      C1940   1.350       .  A
Co1932    Cl1939   2.432       .  S
C1943      C2296   1.488       .  S
C1943      C1944   1.418       .  A
C1943      C1948   1.408       .  A
C1944      C2347   1.476       .  S
C1944      C1945   1.402       .  A
C1945      H1950   1.086       .  S
C1945      C1946   1.399       .  A
C1946      C2248   1.477       .  S
C1946      C1947   1.414       .  A
C1947      C2232   1.481       .  S
C1947      C1948   1.404       .  A
C1951      C1952   1.413       .  A
C1952      C2312   1.478       .  S
C1952      C1953   1.399       .  A
C1953      H1958   1.085       .  S
C1953      C1954   1.404   1_554  A
C1954      C2203   1.476       .  S
C1954      C1955   1.415       .  A
C1956      H1957   1.085   1_455  S
C1959      C2280   1.474       .  S
C1959      C1960   1.414       .  A
C1959      C1964   1.401       .  A
C1960      C2379   1.482       .  S
C1960      C1961   1.403       .  A
C1961      C1962   1.407       .  A
C1962      C2184   1.474       .  S
C1962      C1963   1.414       .  A
C1963      C2168   1.479       .  S
C1963      C1964   1.401       .  A
C1964      H1965   1.085       .  S
C1967      C2363   1.474       .  S
C1967      C1968   1.411       .  A
C1967      C1972   1.400       .  A
C1968      C2264   1.472       .  S
C1968      C1969   1.406       .  A
C1969      C1970   1.403       .  A
C1970      C2136   1.483   1_554  S
C1970      C1971   1.414       .  A
C1971      C2155   1.472   1_554  S
C1971      C1972   1.401       .  A
C1972      H1973   1.085       .  S
C1975      N1976   1.355       .  A
C1975      N1980   1.360       .  A
C1975      C2152   1.467       .  S
N1976      C1977   1.353       .  A
C1977      N1978   1.353       .  A
C1977      C2106   1.459       .  S
N1978      C1979   1.357       .  A
C1979      N1980   1.360       .  A
C1979      C2011   1.461       .  S
C1981      N1982   1.364       .  A
C1981      N1986   1.365       .  A
C1981      C2219   1.479       .  S
N1982      C1983   1.360       .  A
C1983      N1984   1.352       .  A
C1983      C2031   1.462       .  S
N1984      C1985   1.351       .  A
C1985      N1986   1.360       .  A
C1985      C2084   1.464       .  S
C1987      N1988   1.355       .  A
C1987      N1992   1.357       .  A
C1987      C2139   1.465       .  S
N1988      C1989   1.353       .  A
C1989      N1990   1.355       .  A
C1989      C2047   1.458       .  S
N1990      C1991   1.357       .  A
C1991      N1992   1.358       .  A
C1991      C2091   1.458       .  S
C1993      N1994   1.357       .  A
C1993      N1998   1.358       .  A
C1993      C2200   1.467       .  S
N1994      C1995   1.357       .  A
C1995      N1996   1.359       .  A
C1995      C2061   1.466       .  S
N1996      C1997   1.359       .  A
C1997      N1998   1.356       .  A
C1997      C2116   1.463       .  S
C1999      N2000   1.362       .  A
C1999      N2004   1.362       .  A
C1999      C2171   1.478       .  S
N2000      C2001   1.359       .  A
C2001      N2002   1.357       .  A
C2001      C2026   1.468       .  S
N2002      C2003   1.357       .  A
C2003      N2004   1.359       .  A
C2003      C2112   1.468       .  S
C2005      N2006   1.358       .  A
C2005      N2010   1.356       .  A
C2005      C2235   1.472       .  S
N2006      C2007   1.361       .  A
C2007      N2008   1.361       .  A
C2007      C2126   1.466       .  S
N2008      C2009   1.358       .  A
C2009      N2010   1.356       .  A
C2009      C2051   1.468       .  S
C2011      N2029   1.348       .  A
C2011      C2048   1.456       .  S
N2012      N2029   1.325       .  A
N2012      N2034   1.321       .  A
N2012     Co2049   2.075       .  S
C2013      N2038   1.336       .  A
C2013      C2051   1.454       .  S
C2013      H2058   1.081       .  S
H2014      C2055   1.080       .  S
C2015      N2039   1.338       .  A
C2015      C2019   1.456       .  S
C2015      H2044   1.081       .  S
Co2016     N2034   2.088       .  S
Co2016     N2024   2.081       .  S
Co2016     N2056   2.076       .  S
Co2016     N2032   2.099       .  S
Co2016    Cl2060   2.431       .  S
N2017      C2055   1.340       .  A
N2017      N2024   1.319       .  A
N2017     Co2018   2.081       .  S
Co2018     N2021   2.078       .  S
Co2018     N2038   2.074       .  S
Co2018     N2025   2.092       .  S
Co2018    Cl2060   2.468       .  S
C2019      N2057   1.348       .  A
C2019      C2072   1.463       .  S
N2020      N2027   1.320       .  A
N2020      N2050   1.325       .  A
N2020     Co2053   2.084       .  S
N2021      N2039   1.320       .  A
N2021      N2057   1.326       .  A
N2022      C2051   1.353       .  A
N2022      N2032   1.329       .  A
H2023      C2048   1.081       .  S
N2024      N2045   1.323       .  A
N2025      N2043   1.319       .  A
N2025      N2030   1.328       .  A
C2026      N2030   1.353       .  A
C2026      C2054   1.455       .  S
N2027      C2042   1.342       .  A
N2027     Co2049   2.087       .  S
C2028      N2056   1.335       .  A
C2028      C2031   1.453       .  S
C2028      H2062   1.082       .  S
C2031      N2052   1.350       .  A
N2032      N2038   1.321       .  A
N2033      C2059   1.338       .  A
N2033      N2035   1.321       .  A
N2033     Co2049   2.075       .  S
N2034      C2048   1.338       .  A
N2035      N2063   1.324       .  A
N2035     Co2053   2.081       .  S
H2036      C2059   1.081       .  S
H2037      C2054   1.082       .  S
N2039     Co2053   2.082       .  S
N2040      N2052   1.328       .  A
N2040      N2056   1.321       .  A
N2040     Co2049   2.088       .  S
C2041      N2045   1.348       .  A
C2041      C2055   1.457       .  S
C2041      C2066   1.459       .  S
C2042      C2061   1.460       .  S
C2042      H2046   1.080       .  S
N2043      C2054   1.338       .  A
N2043     Co2053   2.081       .  S
C2047      N2063   1.347       .  A
C2047      C2059   1.456       .  S
Co2049    Cl2060   2.471       .  S
N2050      C2061   1.349       .  A
Co2053    Cl2060   2.431       .  S
C2064      N2065   1.358       .  A
C2064      N2069   1.364       .  A
C2064      C2187   1.473       .  S
N2065      C2066   1.353       .  A
C2066      N2067   1.352       .  A
N2067      C2068   1.357       .  A
C2068      N2069   1.362       .  A
C2068      C2076   1.464       .  S
C2070      N2071   1.362       .  A
C2070      N2075   1.361       .  A
C2070      C2251   1.474       .  S
N2071      C2072   1.359       .  A
C2072      N2073   1.354       .  A
N2073      C2074   1.353       .  A
C2074      N2075   1.357       .  A
C2074      C2096   1.463       .  S
C2076      N2094   1.352       .  A
C2076      C2113   1.452       .  S
N2077      N2094   1.329       .  A
N2077      N2099   1.320       .  A
C2078      N2103   1.343       .  A
C2078      C2116   1.462       .  S
C2078      H2123   1.080       .  S
H2079      C2120   1.081       .  S
C2080      N2104   1.338       .  A
C2080      C2084   1.456       .  S
C2080      H2109   1.082       .  S
Co2081     N2121   2.089       .  S
Co2081     N2097   2.071       .  S
Co2081    Cl2125   2.430       .  S
N2082      C2120   1.337       .  A
N2082      N2089   1.321       .  A
Co2083     N2103   2.088       .  S
Co2083    Cl2125   2.469       .  S
C2084      N2122   1.349       .  A
N2085      N2092   1.321       .  A
N2085      N2115   1.325       .  A
N2086      N2104   1.320       .  A
N2086      N2122   1.327       .  A
N2087      C2116   1.345       .  A
N2087      N2097   1.323       .  A
H2088      C2113   1.082       .  S
N2089      N2110   1.325       .  A
N2090      N2108   1.321       .  A
N2090      N2095   1.323       .  A
C2091      N2095   1.347       .  A
C2091      C2119   1.455       .  S
N2092      C2107   1.340       .  A
C2093      N2121   1.339       .  A
C2093      C2096   1.457       .  S
C2093      H2127   1.081       .  S
C2096      N2117   1.348       .  A
N2097      N2103   1.319       .  A
N2098      C2124   1.345       .  A
N2098      N2100   1.319       .  A
N2099      C2113   1.335       .  A
N2100      N2128   1.323       .  A
N2100     Co2118   2.082       .  S
H2101      C2124   1.080       .  S
H2102      C2119   1.081       .  S
N2105      N2117   1.325       .  A
N2105      N2121   1.321       .  A
N2105     Co2114   2.078       .  S
C2106      N2110   1.349       .  A
C2106      C2120   1.453       .  S
C2107      C2126   1.457       .  S
C2107      H2111   1.081       .  S
N2108      C2119   1.339       .  A
N2108     Co2118   2.082       .  S
C2112      N2128   1.347       .  A
C2112      C2124   1.463       .  S
Co2114    Cl2125   2.474       .  S
N2115      C2126   1.350       .  A
C2129      C2134   1.388       .  A
C2129      C2130   1.403       .  A
C2130      H2141   1.084       .  S
C2130      C2131   1.404       .  A
C2131      C2140   1.370       .  A
C2131      C2132   1.388       .  A
C2132      C2133   1.395       .  A
C2132      S2138   1.699       .  A
C2133      H2142   1.085       .  S
C2133      C2134   1.396       .  A
C2134      C2137   1.363       .  A
S2135      C2136   1.721   1_545  A
C2137      H2143   1.084       .  S
S2138      C2139   1.720       .  A
C2139      C2140   1.387       .  A
C2140      H2144   1.083       .  S
C2145      C2150   1.388       .  A
C2145      C2146   1.396       .  A
C2145      S2151   1.700       .  A
C2146      H2157   1.083       .  S
C2146      C2147   1.397       .  A
C2147      C2156   1.363       .  A
C2147      C2148   1.387       .  A
C2148      C2149   1.402       .  A
C2148      S2154   1.709       .  A
C2149      H2158   1.083       .  S
C2149      C2150   1.403       .  A
C2150      C2153   1.371       .  A
S2151      C2152   1.721       .  A
C2152      C2153   1.386       .  A
C2153      H2159   1.083       .  S
S2154      C2155   1.722       .  A
C2155      C2156   1.382       .  A
C2156      H2160   1.083       .  S
C2161      C2166   1.387       .  A
C2161      C2162   1.404       .  A
C2161      S2167   1.713       .  A
C2162      H2173   1.084       .  S
C2162      C2163   1.406       .  A
C2163      C2172   1.374       .  A
C2163      C2164   1.386       .  A
C2164      C2165   1.402       .  A
C2164      S2170   1.709       .  A
C2165      H2174   1.084       .  S
C2165      C2166   1.403       .  A
C2166      C2169   1.371       .  A
S2167      C2168   1.723       .  A
C2168      C2169   1.386       .  A
C2169      H2175   1.084       .  S
S2170      C2171   1.724       .  A
C2171      C2172   1.390       .  A
C2172      H2176   1.083       .  S
C2177      C2182   1.387       .  A
C2178      H2189   1.085       .  S
C2179      C2188   1.375       .  A
C2179      C2180   1.387       .  A
C2180      C2181   1.400       .  A
C2180      S2186   1.702       .  A
C2181      H2190   1.085       .  S
C2181      C2182   1.400       .  A
C2182      C2185   1.370       .  A
S2183      C2184   1.719       .  A
C2185      H2191   1.084       .  S
S2186      C2187   1.724       .  A
C2187      C2188   1.387       .  A
C2188      H2192   1.085       .  S
C2193      C2198   1.387       .  A
C2193      C2194   1.401       .  A
C2193      S2199   1.708       .  A
C2194      H2205   1.085       .  S
C2194      C2195   1.403       .  A
C2195      C2204   1.370       .  A
C2195      C2196   1.387       .  A
C2196      C2197   1.398       .  A
C2196      S2202   1.704       .  A
C2197      H2206   1.085       .  S
C2197      C2198   1.400       .  A
C2198      C2201   1.367       .  A
S2199      C2200   1.722       .  A
C2200      C2201   1.385       .  A
C2201      H2207   1.085       .  S
S2202      C2203   1.722       .  A
C2203      C2204   1.386       .  A
C2204      H2208   1.084       .  S
C2209      C2214   1.387   1_455  A
C2209      C2210   1.403       .  A
C2210      C2211   1.404   1_455  A
C2211      C2220   1.373       .  A
C2211      C2212   1.386       .  A
C2212      C2213   1.404       .  A
C2212      S2218   1.711       .  A
C2213      H2222   1.083       .  S
C2213      C2214   1.405       .  A
C2214      C2217   1.374       .  A
C2216      C2217   1.388   1_455  A
C2217      H2223   1.083       .  S
S2218      C2219   1.725       .  A
C2219      C2220   1.389       .  A
C2220      H2224   1.083       .  S
C2225      C2226   1.404       .  A
C2225      S2231   1.711   1_545  A
C2226      H2237   1.085       .  S
C2227      C2236   1.374       .  A
C2227      C2228   1.387       .  A
C2228      C2229   1.398       .  A
C2228      S2234   1.703       .  A
C2229      H2238   1.085       .  S
C2229      C2230   1.398       .  A
C2230      C2233   1.365       .  A
S2231      C2232   1.724       .  A
C2233      H2239   1.085       .  S
S2234      C2235   1.721       .  A
C2235      C2236   1.388       .  A
C2236      H2240   1.084       .  S
C2241      C2246   1.387       .  A
C2241      C2242   1.403       .  A
C2241      S2247   1.711       .  A
C2242      H2253   1.083       .  S
C2242      C2243   1.404       .  A
C2243      C2252   1.371       .  A
C2243      C2244   1.387       .  A
C2244      C2245   1.400       .  A
C2244      S2250   1.708       .  A
C2245      H2254   1.083       .  S
C2245      C2246   1.402       .  A
C2246      C2249   1.368       .  A
S2247      C2248   1.722       .  A
C2248      C2249   1.384       .  A
C2249      H2255   1.083       .  S
S2250      C2251   1.723       .  A
C2251      C2252   1.388       .  A
C2252      H2256   1.083       .  S
C2257      C2262   1.387       .  A
C2257      C2258   1.401       .  A
C2257      S2263   1.707       .  A
C2258      H2269   1.084       .  S
C2258      C2259   1.403       .  A
C2259      C2268   1.370       .  A
C2259      C2260   1.387       .  A
C2260      C2261   1.400       .  A
C2260      S2266   1.706       .  A
C2261      H2270   1.084       .  S
C2261      C2262   1.401       .  A
C2264      C2265   1.383       .  A
C2265      H2271   1.084       .  S
S2266      C2267   1.722       .  A
C2267      C2268   1.387       .  A
C2268      H2272   1.084       .  S
C2273      C2278   1.387       .  A
C2273      C2274   1.401       .  A
C2273      S2279   1.706       .  A
C2274      H2285   1.084       .  S
C2274      C2275   1.402       .  A
C2275      C2284   1.371       .  A
C2275      C2276   1.388       .  A
C2276      C2277   1.398       .  A
C2276      S2282   1.701       .  A
C2277      H2286   1.084       .  S
C2277      C2278   1.399       .  A
C2278      C2281   1.366       .  A
S2279      C2280   1.721       .  A
C2280      C2281   1.384       .  A
C2281      H2287   1.083       .  S
S2282      C2283   1.722       .  A
C2283      C2284   1.385       .  A
C2284      H2288   1.083       .  S
C2289      C2294   1.387       .  A
C2289      C2290   1.401       .  A
C2289      S2295   1.706       .  A
C2290      H2301   1.084       .  S
C2290      C2291   1.402       .  A
C2291      C2300   1.370       .  A
C2291      C2292   1.386       .  A
C2292      C2293   1.404       .  A
C2292      S2298   1.711       .  A
C2293      C2294   1.405       .  A
C2296      C2297   1.391   1_565  A
C2297      H2303   1.083   1_545  S
S2298      C2299   1.724       .  A
C2299      C2300   1.388       .  A
C2300      H2304   1.084       .  S
C2305      C2310   1.387       .  A
C2305      C2306   1.402       .  A
C2305      S2311   1.709       .  A
C2306      H2317   1.085       .  S
C2306      C2307   1.403       .  A
C2307      C2316   1.372       .  A
C2307      C2308   1.387       .  A
C2308      C2309   1.400       .  A
C2308      S2314   1.704       .  A
C2309      H2318   1.085       .  S
C2309      C2310   1.401       .  A
C2310      C2313   1.369       .  A
S2311      C2312   1.721       .  A
C2312      C2313   1.385       .  A
C2313      H2319   1.084       .  S
S2314      C2315   1.723       .  A
C2315      C2316   1.386       .  A
C2316      H2320   1.084       .  S
C2321      C2326   1.387   1_655  A
C2321      C2322   1.404       .  A
C2321      S2327   1.709       .  A
C2322      H2333   1.082       .  S
C2322      C2323   1.404       .  A
C2323      C2332   1.373       .  A
C2323      C2324   1.388       .  A
C2324      S2330   1.700       .  A
C2325      H2334   1.083       .  S
S2327      C2328   1.722   1_655  A
C2329      H2335   1.083       .  S
S2330      C2331   1.721       .  A
C2331      C2332   1.388       .  A
C2332      H2336   1.083       .  S
C2337      C2342   1.387       .  A
C2337      C2338   1.400       .  A
C2337      S2343   1.703       .  A
C2338      H2349   1.084       .  S
C2338      C2339   1.400       .  A
C2339      C2348   1.369       .  A
C2339      C2340   1.387       .  A
C2340      C2341   1.404       .  A
C2340      S2346   1.711       .  A
C2341      H2350   1.084       .  S
C2341      C2342   1.405       .  A
C2342      C2345   1.374       .  A
S2343      C2344   1.723       .  A
C2344      C2345   1.390       .  A
C2345      H2351   1.083       .  S
S2346      C2347   1.724       .  A
C2347      C2348   1.383       .  A
C2348      H2352   1.084       .  S
C2353      C2358   1.387       .  A
C2353      C2354   1.402       .  A
C2353      S2359   1.705       .  A
C2354      H2365   1.084       .  S
C2354      C2355   1.402       .  A
C2355      C2364   1.371       .  A
C2355      C2356   1.387       .  A
C2356      C2357   1.403       .  A
C2356      S2362   1.709       .  A
C2357      H2366   1.083       .  S
C2357      C2358   1.404       .  A
C2358      C2361   1.374       .  A
S2359      C2360   1.725       .  A
C2360      C2361   1.389       .  A
C2361      H2367   1.083       .  S
S2362      C2363   1.721       .  A
C2363      C2364   1.384       .  A
C2364      H2368   1.083       .  S
C2369      C2374   1.387       .  A
C2369      C2370   1.399       .  A
C2369      S2375   1.703       .  A
C2370      H2381   1.083       .  S
C2370      C2371   1.400       .  A
C2371      C2380   1.367       .  A
C2372      C2373   1.406       .  A
C2372      S2378   1.714       .  A
C2373      H2382   1.083       .  S
C2374      C2377   1.373       .  A
S2375      C2376   1.724       .  A
C2376      C2377   1.388       .  A
C2377      H2383   1.083       .  S
S2378      C2379   1.724       .  A
C2380      H2384   1.084       .  S
