geometry optimzed in LAMMPS
_audit_creation_date              2020-12-01 
_audit_creation_method            'lammps2cif' 
_symmetry_space_group_name_H-M    'P1' 
_symmetry_Int_Tables_number       1 
_symmetry_cell_setting            triclinic 
loop_ 
_symmetry_equiv_pos_as_xyz 
  x,y,z 
_cell_length_a                    43.69579425 
_cell_length_b                    43.68644687453952 
_cell_length_c                    43.70720107523427 
_cell_angle_alpha                 90.29309290954689 
_cell_angle_beta                  89.72362077293639 
_cell_angle_gamma                 89.73479012623939 
loop_ 
_atom_site_label 
_atom_site_type_symbol 
_atom_site_fract_x 
_atom_site_fract_y 
_atom_site_fract_z 
_atom_site_charge 
C1          C  0.33425801  0.23842180  0.51775963     0.81800
N2          N  0.35090009  0.21225324  0.51905323    -0.76500
C3          C  0.36147806  0.19899426  0.49300461     0.84200
N4          N  0.35467753  0.21145119  0.46550504    -0.76500
C5          C  0.33810784  0.23774573  0.46424672     0.84300
N6          N  0.32741666  0.25088415  0.49033822    -0.78200
C7          C  0.17950242  0.37393045  0.46368815     0.81800
N8          N  0.19203086  0.36349424  0.49034883    -0.76500
C9          C  0.17943722  0.37169360  0.51794781     0.84200
N10         N  0.15432722  0.39020947  0.51863275    -0.76500
C11         C  0.14170744  0.40063810  0.49228470     0.84300
N12         N  0.15431974  0.39241910  0.46489900    -0.78200
C13         C  0.17963381  0.52417453  0.34916557     0.81800
N14         N  0.19233396  0.55154213  0.34244143    -0.76500
C15         C  0.17944333  0.57771187  0.35329027     0.84200
N16         N  0.15315914  0.57658252  0.36988328    -0.76500
C17         C  0.14046498  0.54914481  0.37655169     0.84300
N18         N  0.15348002  0.52303000  0.36583037    -0.78200
C19         C  0.31289129  0.52382738  0.19486111     0.81800
N20         N  0.33123306  0.52298950  0.16963261    -0.76500
C21         C  0.34175697  0.54927327  0.15693248     0.84200
N22         N  0.33381195  0.57672949  0.16957076    -0.76500
C23         C  0.31549444  0.57808446  0.19485687     0.84300
N24         N  0.30495954  0.55149943  0.20747627    -0.78200
C25         C  0.49487293  0.22387450  0.32781221     0.81800
N26         N  0.46899364  0.23947420  0.32037848    -0.76500
C27         C  0.44120509  0.22922915  0.32995688     0.84200
N28         N  0.43942100  0.20312377  0.34684530    -0.76500
C29         C  0.46540472  0.18751429  0.35421950     0.84300
N30         N  0.49295583  0.19796129  0.34460289    -0.78200
C31         C  0.47027671  0.38893096  0.19580347     0.81800
N32         N  0.47228324  0.40794773  0.17154749    -0.76500
C33         C  0.49989491  0.41784702  0.16172853     0.84200
N34         N  0.52574635  0.40833600  0.17589502    -0.76500
C35         C  0.52382469  0.38931116  0.20028827     0.84300
N36         N  0.49608058  0.37925599  0.21005004    -0.78200
C37         C  0.15442551  0.34751854  0.96359225     0.81800
N38         N  0.13599597  0.37274456  0.96490832    -0.76500
C39         C  0.12803083  0.38542197  0.99234155     0.84200
N40         N  0.13863661  0.37281165  0.01861919    -0.76500
C41         C  0.15708641  0.34765694  0.01781596     0.84300
N42         N  0.16503228  0.33499754  0.99018066    -0.78200
C43         C  0.28927482  0.18855547  0.96406239     0.81800
N44         N  0.27660091  0.19982957  0.99015067    -0.76500
C45         C  0.28940078  0.19336609  0.01751849     0.84200
N46         N  0.31543863  0.17652373  0.01873630    -0.76500
C47         C  0.32824556  0.16538655  0.99269868     0.84300
N48         N  0.31545178  0.17179438  0.96525791    -0.78200
O49         O  0.13001419  0.32988895  0.73847061    -0.86600
C50         C  0.25103152  0.24691676  0.64297819     1.13400
O51         O  0.19953587  0.31882334  0.74010548    -1.34400
O52         O  0.18372799  0.21768527  0.68605887    -0.88100
O53         O  0.15113097  0.34886933  0.78112949    -0.88800
O54         O  0.18804977  0.28180734  0.80400887    -0.77600
O55         O  0.15797497  0.27692030  0.70731258    -0.99700
C56         C  0.23916970  0.21527664  0.77311698     1.23500
O57         O  0.25139924  0.29259527  0.76597876    -1.34600
Mn58       Mn  0.24467913  0.31173191  0.72080046     1.82100
O59         O  0.21451396  0.22965184  0.77727200    -0.76600
O60         O  0.22655795  0.19728169  0.70557964    -0.86000
C61         C  0.30431960  0.27949325  0.70745273     1.14600
C62         C  0.19911147  0.19536154  0.69653960     1.09300
O63         O  0.26288099  0.35567242  0.72939716    -0.77600
O64         O  0.22524165  0.26678947  0.71409386    -1.31300
O65         O  0.24253478  0.35853904  0.77370295    -0.96800
C66         C  0.27089515  0.26579083  0.83675284     1.08000
Mn67       Mn  0.25908925  0.23130443  0.71212053     1.48600
O68         O  0.25961341  0.29258790  0.83596917    -0.86000
Mn69       Mn  0.19781619  0.35414593  0.77412980     1.49600
O70         O  0.17164706  0.36829726  0.69891712    -0.89900
C71         C  0.14609285  0.26195257  0.72775598     1.21200
C72         C  0.18214972  0.39052937  0.71443238     1.13300
Mn73       Mn  0.20608238  0.27374305  0.75931173     1.81000
O74         O  0.29227976  0.25965260  0.72284807    -0.95000
Mn75       Mn  0.16435403  0.32154258  0.70610406     1.49300
C76         C  0.12851049  0.33914573  0.76597562     1.09800
Mn77       Mn  0.28746163  0.25932658  0.76733835     1.49900
C78         C  0.32240564  0.31889125  0.78528529     1.12700
O79         O  0.20855169  0.32556630  0.80710676    -1.00800
O80         O  0.26605909  0.23682141  0.66549942    -0.90500
C81         C  0.19305269  0.30579910  0.81911791     1.24000
O82         O  0.25876314  0.22663318  0.75679348    -1.01200
O83         O  0.22354083  0.25624017  0.64452461    -0.88600
O84         O  0.32141424  0.29215649  0.77390128    -0.88200
O85         O  0.19128308  0.38842413  0.74183524    -0.88200
Mn86       Mn  0.19117718  0.26444314  0.67895467     1.47900
O87         O  0.28927048  0.30354778  0.70261891    -0.76700
C88         C  0.25884810  0.36992733  0.75413190     1.17000
O89         O  0.16150994  0.25657968  0.75136801    -0.75400
O90         O  0.23673058  0.32918861  0.67634333    -0.75100
Mn91       Mn  0.25306304  0.32566315  0.80218965     1.51100
O92         O  0.28248997  0.25209188  0.81388751    -0.87400
O93         O  0.19256674  0.30908329  0.67278743    -0.94900
O94         O  0.29966914  0.33268694  0.79703913    -0.90000
C95         C  0.21305893  0.32401746  0.66093883     1.14800
C96         C  0.13397482  0.02408810  0.30298485     0.81800
N97         N  0.11716322  0.02272823  0.32902832    -0.76500
C98         C  0.10624874  0.04873026  0.34211645     0.84200
N99         N  0.11288140  0.07626667  0.32962260    -0.76500
C100        C  0.12961602  0.07759878  0.30344523     0.84300
N101        N  0.14064855  0.05154756  0.29048399    -0.78200
C102        C  0.28890219  0.02398280  0.17040780     0.81800
N103        N  0.31406153  0.02323081  0.15197290    -0.76500
C104        C  0.32657350  0.04954601  0.14131399     0.84200
N105        N  0.31381613  0.07695819  0.14921401    -0.76500
C106        C  0.28859627  0.07823024  0.16763183     0.84300
N107        N  0.27616259  0.05160849  0.17830387    -0.78200
O108        O  0.27712400  0.79989183  0.15305282    -0.86600
C109        C  0.19749480  0.70487931  0.27552642     1.13400
O110        O  0.26888087  0.80158525  0.22260140    -1.34400
O111        O  0.16876791  0.74463891  0.20870820    -0.88100
O112        O  0.29669652  0.84285514  0.17317808    -0.88800
O113        O  0.23171150  0.86540771  0.21231250    -0.77600
O114        O  0.22589897  0.76800146  0.18283212    -0.99700
C115        C  0.16407593  0.83428325  0.26185881     1.23500
O116        O  0.24316163  0.82762831  0.27462247    -1.34600
Mn117      Mn  0.26231098  0.78238508  0.26765223     1.82100
O118        O  0.17916519  0.83909827  0.23783444    -0.76600
O119        O  0.14697931  0.76760046  0.24930897    -0.86000
C120        C  0.22924961  0.76869709  0.32612244     1.14600
C121        C  0.14599596  0.75623306  0.22257316     1.09300
O122        O  0.30689837  0.79028320  0.28479488    -0.77600
O123        O  0.21700944  0.77571033  0.24879011    -1.31300
O124        O  0.31045031  0.83435459  0.26447988    -0.96800
C125        C  0.21746090  0.89884373  0.29455368     1.08000
Mn126      Mn  0.18095983  0.77433370  0.28207106     1.48600
O127        O  0.24498215  0.89724455  0.28531901    -0.86000
Mn128      Mn  0.30406487  0.83559905  0.21989418     1.49600
O129        O  0.31726230  0.76050938  0.19259660    -0.89900
C130        C  0.20964070  0.78764002  0.17145977     1.21200
C131        C  0.33988500  0.77563224  0.20235796     1.13300
Mn132      Mn  0.22375479  0.82091465  0.22969073     1.81000
O133        O  0.20964230  0.78498251  0.31473904    -0.95000
Mn134      Mn  0.27060576  0.76754656  0.18727493     1.49300
C135        C  0.28615739  0.82734177  0.15096714     1.09800
Mn136      Mn  0.20926401  0.82966492  0.31004718     1.49900
C137        C  0.26922809  0.84523917  0.34605374     1.12700
O138        O  0.27586885  0.86892892  0.23242243    -1.00800
O139        O  0.18602249  0.72776817  0.28930577    -0.90500
C140        C  0.25536609  0.88081960  0.21755435     1.24000
O141        O  0.17607058  0.81886949  0.28171232    -1.01200
O142        O  0.20872602  0.70567834  0.24871944    -0.88600
O143        O  0.24174388  0.83629901  0.34410702    -0.88200
O144        O  0.33841119  0.80317989  0.21154396    -0.88200
Mn145      Mn  0.21535870  0.73949000  0.21570431     1.47900
O146        O  0.25387807  0.76446509  0.31172884    -0.76700
C147        C  0.32234174  0.81388238  0.27939323     1.17000
O148        O  0.20561398  0.81235835  0.18575548    -0.75400
O149        O  0.28034237  0.73769559  0.25957543    -0.75100
Mn150      Mn  0.27727653  0.86273788  0.27702060     1.51100
O151        O  0.20231653  0.87630966  0.30447924    -0.87400
O152        O  0.25988946  0.73450947  0.21580598    -0.94900
O153        O  0.28470779  0.85558002  0.32373654    -0.90000
C154        C  0.27542277  0.72256164  0.23558972     1.14800
C155        C  0.97355974  0.21343903  0.31686515     0.81800
N156        N  0.97537370  0.19660584  0.34275759    -0.76500
C157        C  0.00288478  0.18696511  0.35328891     0.84200
N158        N  0.02892695  0.19437034  0.33779487    -0.76500
C159        C  0.02725216  0.21129504  0.31171464     0.84300
N160        N  0.99950620  0.22089918  0.30138456    -0.78200
C161        C  0.94471652  0.34249779  0.15360306     0.81800
N162        N  0.97243386  0.33273880  0.16370162    -0.76500
C163        C  0.99824465  0.34699317  0.15406638     0.84200
N164        N  0.99628938  0.37122464  0.13502054    -0.76500
C165        C  0.96870502  0.38103752  0.12507171     0.84300
N166        N  0.94282651  0.36687115  0.13453980    -0.78200
O167        O  0.80959333  0.25175844  0.30480785    -0.86600
C168        C  0.63622322  0.24649013  0.27454172     1.13400
O169        O  0.76021548  0.29262303  0.27497330    -1.34400
O170        O  0.69887514  0.19657216  0.25024152    -0.88100
O171        O  0.83004243  0.29413255  0.28463916    -0.88800
O172        O  0.79657256  0.28108171  0.21205545    -0.77600
O173        O  0.75108398  0.22611004  0.28161294    -0.99700
C174        C  0.72197590  0.25993684  0.17139465     1.23500
O175        O  0.73416849  0.31863005  0.22282162    -1.34600
Mn176      Mn  0.71522302  0.31148807  0.26780020     1.82100
O177        O  0.74575049  0.25564882  0.18650447    -0.76600
O178        O  0.67850519  0.21707634  0.20799570    -0.86000
C179        C  0.65674441  0.32513094  0.23655344     1.14600
C180        C  0.68845289  0.19443349  0.22326752     1.09300
O181        O  0.72253179  0.35498463  0.28572858    -0.77600
O182        O  0.70815320  0.26647457  0.24887985    -1.31300
O183        O  0.76676262  0.35922422  0.26563907    -0.96800
C184        C  0.76005664  0.33813934  0.15085183     1.08000
Mn185      Mn  0.67285972  0.26440560  0.21523262     1.48600
O186        O  0.77530131  0.34808751  0.17351608    -0.86000
Mn187      Mn  0.79542712  0.32637203  0.27708139     1.49600
O188        O  0.76954266  0.29135890  0.34485300    -0.89900
C189        C  0.76692102  0.21521831  0.26117800     1.21200
C190        C  0.77975841  0.31843227  0.34698291     1.13300
Mn191      Mn  0.75311800  0.27366052  0.22996690     1.81000
O192        O  0.66768439  0.30930715  0.21612565    -0.95000
Mn193      Mn  0.76227181  0.25899869  0.31030135     1.49300
C194        C  0.83222884  0.26711790  0.29498257     1.09800
Mn195      Mn  0.70056705  0.32061411  0.18746555     1.49900
C196        C  0.70852636  0.39064395  0.20294626     1.12700
O197        O  0.80064779  0.32529572  0.23224707    -1.00800
O198        O  0.63833726  0.25696312  0.24758060    -0.90500
C199        C  0.81164900  0.30485669  0.21648566     1.24000
O200        O  0.70150944  0.27571585  0.18233206    -1.01200
O201        O  0.65888915  0.23659778  0.28980357    -0.88600
O202        O  0.69323377  0.36796068  0.19308322    -0.88200
O203        O  0.78963543  0.33375161  0.32434683    -0.88200
Mn204      Mn  0.70620138  0.23114789  0.28252433     1.47900
O205        O  0.67178274  0.32940548  0.26036727    -0.76700
C206        C  0.74625712  0.37015711  0.28137222     1.17000
O207        O  0.77112914  0.23025965  0.23736313    -0.75400
O208        O  0.69722516  0.30407205  0.31123151    -0.75100
Mn209      Mn  0.76784084  0.35393837  0.22077818     1.51100
O210        O  0.73297040  0.32794569  0.15293563    -0.87400
O211        O  0.71740807  0.25987036  0.31534812    -0.94900
O212        O  0.73557354  0.38852534  0.21321130    -0.90000
C213        C  0.70154730  0.28026557  0.32627725     1.14800
C214        C  0.68074669  0.19670266  0.98466346     0.81800
N215        N  0.69516020  0.20636224  0.01038709    -0.76500
C216        C  0.68546812  0.19639626  0.03818371     0.84200
N217        N  0.66100399  0.17744482  0.04022405    -0.76500
C218        C  0.64668134  0.16794609  0.01444608     0.84300
N219        N  0.65642134  0.17777429  0.98679422    -0.78200
C220        C  0.81381014  0.35990783  0.00964131     0.81800
N221        N  0.83054486  0.38588939  0.00784629    -0.76500
C222        C  0.83986891  0.39666984  0.98032482     0.84200
N223        N  0.83224125  0.38132443  0.95425304    -0.76500
C224        C  0.81541158  0.35515884  0.95590469     0.84300
N225        N  0.80612789  0.34458674  0.98366208    -0.78200
C226        C  0.94898794  0.21188687  0.69358200     0.81800
N227        N  0.95030894  0.19339005  0.66839806    -0.76500
C228        C  0.97775712  0.18539316  0.65575379     0.84200
N229        N  0.00403760  0.19603702  0.66835666    -0.76500
C230        C  0.00322713  0.21454681  0.69346798     0.84300
N231        N  0.97558328  0.22252416  0.70608693    -0.78200
C232        C  0.00293548  0.34695359  0.84905026     0.81800
N233        N  0.00413287  0.37280512  0.86618272    -0.76500
C234        C  0.97805648  0.38562662  0.87720732     0.84200
N235        N  0.95059958  0.37304806  0.87037406    -0.76500
C236        C  0.94944321  0.34703701  0.85333295     0.84300
N237        N  0.97557122  0.33436003  0.84218239    -0.78200
O238        O  0.79981132  0.34047963  0.78904483    -0.86600
C239        C  0.62884043  0.30927791  0.79542920     1.13400
O240        O  0.75164380  0.30953275  0.74879819    -1.34400
O241        O  0.69175758  0.28453116  0.84432736    -0.88100
O242        O  0.82166724  0.31735336  0.74857825    -0.88800
O243        O  0.78947968  0.24598545  0.75921920    -0.77600
O244        O  0.74281703  0.31677965  0.81473950    -0.99700
C245        C  0.71314460  0.20427475  0.77927704     1.23500
O246        O  0.72544248  0.25785403  0.72255797    -1.34600
Mn247      Mn  0.70634987  0.30304092  0.72987718     1.82100
O248        O  0.73685193  0.21958569  0.78459373    -0.76600
O249        O  0.67189908  0.24184956  0.82388286    -0.86000
C250        C  0.64629916  0.27172354  0.71782218     1.14600
C251        C  0.68258870  0.25711090  0.84619716     1.09300
O252        O  0.71483505  0.32136084  0.68599778    -0.77600
O253        O  0.69977064  0.28349092  0.77478015    -1.31300
O254        O  0.75907314  0.30086682  0.68281817    -0.96800
C255        C  0.75083832  0.18682120  0.70181079     1.08000
Mn256      Mn  0.66453718  0.24951083  0.77721938     1.48600
O257        O  0.76604846  0.20941836  0.69213985    -0.86000
Mn258      Mn  0.78775836  0.31110545  0.71561514     1.49600
O259        O  0.75968145  0.37953143  0.74926505    -0.89900
C260        C  0.75911155  0.29710448  0.82598847     1.21200
C261        C  0.77113118  0.38050895  0.72256690     1.13300
Mn262      Mn  0.74489270  0.26418662  0.76754366     1.81000
O263        O  0.65812527  0.25114243  0.73263969    -0.95000
Mn264      Mn  0.75322655  0.34555334  0.78209074     1.49300
C265        C  0.82257605  0.32871329  0.77532454     1.09800
Mn266      Mn  0.69124134  0.22283777  0.71987993     1.49900
C267        C  0.69929694  0.24089269  0.65100943     1.12700
O268        O  0.79248676  0.26657121  0.71552079    -1.00800
O269        O  0.63026354  0.28186799  0.78585716    -0.90500
C270        C  0.80451543  0.25096975  0.73519333     1.24000
O271        O  0.69268678  0.21627842  0.76443543    -1.01200
O272        O  0.65147914  0.32425119  0.80535711    -0.88600
O273        O  0.68382192  0.23036948  0.67324076    -0.88200
O274        O  0.78286845  0.35775403  0.70878746    -0.88200
Mn275      Mn  0.69812523  0.31720784  0.81040579     1.47900
O276        O  0.66179367  0.29532470  0.71260168    -0.76700
C277        C  0.73949544  0.31731248  0.67161724     1.17000
O278        O  0.76311154  0.27244948  0.81155442    -0.75400
O279        O  0.68831538  0.34764513  0.73827653    -0.75100
Mn280      Mn  0.75928390  0.25612631  0.68708378     1.51100
O281        O  0.72338011  0.18838117  0.71119708    -0.87400
O282        O  0.70870722  0.35049294  0.78209522    -0.94900
O283        O  0.72676257  0.24987229  0.65301426    -0.90000
C284        C  0.69320515  0.36259488  0.76237590     1.14800
C285        C  0.15579817  0.72424918  0.98805670     0.81800
N286        N  0.16311125  0.73977925  0.01400919    -0.76500
C287        C  0.15359389  0.72931893  0.04172124     0.84200
N288        N  0.13689325  0.70307935  0.04335799    -0.76500
C289        C  0.12965237  0.68754293  0.01729591     0.84300
N290        N  0.13920123  0.69819548  0.98981759    -0.78200
C291        C  0.28786062  0.88834345  0.01272008     0.81800
N292        N  0.31203489  0.90749048  0.01079941    -0.76500
C293        C  0.32174987  0.91762249  0.98324704     0.84200
N294        N  0.30756009  0.90821787  0.95736698    -0.76500
C295        C  0.28324844  0.88906202  0.95920259     0.84300
N296        N  0.27358958  0.87877481  0.98688716    -0.78200
C297        C  0.13835676  0.00312517  0.69956788     0.81800
N298        N  0.11932638  0.00100474  0.67518420    -0.76500
C299        C  0.11001869  0.02673379  0.66065505     0.84200
N300        N  0.12010485  0.05440719  0.67011932    -0.76500
C301        C  0.13910831  0.05660470  0.69437035     0.84300
N302        N  0.14857910  0.03093366  0.70898236    -0.78200
C303        C  0.30241555  0.03186569  0.82789765     0.81800
N304        N  0.32836932  0.03366468  0.84464541    -0.76500
C305        C  0.33907237  0.06118759  0.85408731     0.84200
N306        N  0.32368426  0.08726310  0.84656953    -0.76500
C307        C  0.29753906  0.08560687  0.82972815     0.84300
N308        N  0.28704026  0.05784324  0.82032018    -0.78200
O309        O  0.33036269  0.82762988  0.74969415    -0.86600
C310        C  0.20862342  0.74698586  0.84678943     1.13400
O311        O  0.26042231  0.81856730  0.74865453    -1.34400
O312        O  0.27498063  0.71717019  0.80467142    -0.88100
O313        O  0.30977447  0.84792074  0.70745815    -0.88800
O314        O  0.27089866  0.78084999  0.68630029    -0.77600
O315        O  0.30082061  0.77557200  0.78129308    -0.99700
C316        C  0.22159046  0.71519300  0.71612644     1.23500
O317        O  0.20810574  0.79266289  0.72276994    -1.34600
Mn318      Mn  0.21543952  0.81160815  0.76770343     1.82100
O319        O  0.24544967  0.73016839  0.71185242    -0.76600
O320        O  0.23270495  0.69670712  0.78427420    -0.86000
C321        C  0.15682590  0.78060305  0.78153833     1.14600
C322        C  0.25964949  0.69453097  0.79479104     1.09300
O323        O  0.19761830  0.85511767  0.76034485    -0.77600
O324        O  0.23422838  0.76656563  0.77481202    -1.31300
O325        O  0.21764426  0.85919522  0.71607946    -0.96800
C326        C  0.18798936  0.76701253  0.65087205     1.08000
Mn327      Mn  0.20046985  0.73134116  0.77690270     1.48600
O328        O  0.19841189  0.79400812  0.65297542    -0.86000
Mn329      Mn  0.26250843  0.85381962  0.71495855     1.49600
O330        O  0.29054865  0.86783956  0.78942332    -0.89900
C331        C  0.31162890  0.75968871  0.76083652     1.21200
C332        C  0.28066042  0.89051962  0.77417709     1.13300
Mn333      Mn  0.25305863  0.77358198  0.72979641     1.81000
O334        O  0.16766165  0.76011956  0.76571186    -0.95000
Mn335      Mn  0.29588639  0.82048816  0.78215700     1.49300
C336        C  0.33243767  0.83789957  0.72265360     1.09800
Mn337      Mn  0.17265084  0.75912784  0.72084271     1.49900
C338        C  0.13614799  0.81860998  0.70322704     1.12700
O339        O  0.25091629  0.82514729  0.68218433    -1.00800
O340        O  0.19332695  0.73697967  0.82419391    -0.90500
C341        C  0.26655378  0.80460616  0.67118881     1.24000
O342        O  0.20123711  0.72615811  0.73202603    -1.01200
O343        O  0.23560875  0.75740022  0.84462483    -0.88600
O344        O  0.13820212  0.79157723  0.71354454    -0.88200
O345        O  0.27021024  0.88840376  0.74720582    -0.88200
Mn346      Mn  0.26793646  0.76453216  0.81006239     1.47900
O347        O  0.17199605  0.80435656  0.78580173    -0.76700
C348        C  0.20194592  0.87019945  0.73657114     1.17000
O349        O  0.29646010  0.75543180  0.73709649    -0.75400
O350        O  0.22303466  0.82963049  0.81107430    -0.75100
Mn351      Mn  0.20607923  0.82632660  0.68748594     1.51100
O352        O  0.17808766  0.75176166  0.67354050    -0.87400
O353        O  0.26723683  0.80943049  0.81510628    -0.94900
O354        O  0.15882915  0.83383282  0.69328552    -0.90000
C355        C  0.24688352  0.82534744  0.82605577     1.14800
C356        C  0.96507147  0.73752943  0.14908909     0.81800
N357        N  0.96410924  0.71154442  0.13213045    -0.76500
C358        C  0.99033302  0.69872275  0.12145194     0.84200
N359        N  0.01767816  0.71142587  0.12846471    -0.76500
C360        C  0.01860404  0.73753687  0.14535786     0.84300
N361        N  0.99233783  0.75024266  0.15614586    -0.78200
C362        C  0.96522757  0.87174992  0.30243041     0.81800
N363        N  0.99283376  0.86364229  0.28978508    -0.76500
C364        C  0.01949628  0.87406128  0.30235184     0.84200
N365        N  0.01828036  0.89243033  0.32761862    -0.76500
C366        C  0.99089055  0.90055664  0.34027669     0.84300
N367        N  0.96453853  0.89014945  0.32762615    -0.78200
C368        C  0.83033220  0.02886157  0.30216060     0.81800
N369        N  0.82077204  0.05474283  0.28800071    -0.76500
C370        C  0.83089095  0.08241165  0.29789642     0.84200
N371        N  0.84987566  0.08418897  0.32233281    -0.76500
C372        C  0.85927414  0.05824548  0.33641030     0.84300
N373        N  0.84930802  0.03069898  0.32646046    -0.78200
C374        C  0.67093951  0.99946364  0.16756626     0.81800
N375        N  0.64471154  0.99784314  0.15087628    -0.76500
C376        C  0.62914827  0.02391066  0.14374753     0.84200
N377        N  0.63975653  0.05139190  0.15340036    -0.76500
C378        C  0.66580086  0.05314249  0.17000245     0.84300
N379        N  0.68136172  0.02717200  0.17720228    -0.78200
O380        O  0.66862168  0.75211875  0.20100817    -0.86600
C381        C  0.83953023  0.74600082  0.23219615     1.13400
O382        O  0.71682792  0.79255257  0.23173507    -1.34400
O383        O  0.77651653  0.69719998  0.25742181    -0.88100
O384        O  0.64679523  0.79282450  0.22375479    -0.88800
O385        O  0.67895290  0.78264024  0.29532036    -0.77600
O386        O  0.72552456  0.72652985  0.22497440    -0.99700
C387        C  0.75520682  0.76274357  0.33720673     1.23500
O388        O  0.74301625  0.81914969  0.28324936    -1.34600
Mn389      Mn  0.76214216  0.81149317  0.23814360     1.82100
O390        O  0.73151151  0.75737307  0.32190412    -0.76600
O391        O  0.79656998  0.71790241  0.29986749    -0.86000
C392        C  0.82216191  0.82384165  0.26944225     1.14600
C393        C  0.78575376  0.69551054  0.28480636     1.09300
O394        O  0.75376910  0.85527038  0.21952851    -0.77600
O395        O  0.76864062  0.76672237  0.25798574    -1.31300
O396        O  0.70951299  0.85861608  0.23993910    -0.96800
C397        C  0.71744894  0.84034934  0.35407943     1.08000
Mn398      Mn  0.80389767  0.76454454  0.29194161     1.48600
O399        O  0.70233916  0.84998855  0.33141035    -0.86000
Mn400      Mn  0.68078128  0.82578197  0.22987208     1.49600
O401        O  0.70883100  0.79151114  0.16175350    -0.89900
C402        C  0.70916064  0.71546498  0.24470273     1.21200
C403        C  0.69747655  0.81824037  0.16056873     1.13300
Mn404      Mn  0.72352119  0.77412845  0.27720767     1.81000
O405        O  0.81032894  0.80914400  0.29011454    -0.95000
Mn406      Mn  0.71521431  0.75897573  0.19596296     1.49300
C407        C  0.64584942  0.76599028  0.21257325     1.09800
Mn408      Mn  0.77714664  0.82201997  0.31830783     1.49900
C409        C  0.76920466  0.89081215  0.29978970     1.12700
O410        O  0.67598181  0.82619984  0.27439471    -1.00800
O411        O  0.83812896  0.75581830  0.25951894    -0.90500
C412        C  0.66394131  0.80664343  0.29014339     1.24000
O413        O  0.77572566  0.77747768  0.32513995    -1.01200
O414        O  0.81689374  0.73580996  0.21739815    -0.88600
O415        O  0.78458140  0.86863186  0.31055621    -0.88200
O416        O  0.68579598  0.83226001  0.18320260    -0.88200
Mn417      Mn  0.77023357  0.73084720  0.22451775     1.47900
O418        O  0.80669981  0.82882028  0.24578121    -0.76700
C419        C  0.72913718  0.86971842  0.22348087     1.17000
O420        O  0.70521544  0.73007347  0.26925584    -0.75400
O421        O  0.78019861  0.80274902  0.19364801    -0.75100
Mn422      Mn  0.70921062  0.85468813  0.28468018     1.51100
O423        O  0.74488312  0.83086260  0.35262255    -0.87400
O424        O  0.75972925  0.75891675  0.19103217    -0.94900
O425        O  0.74177751  0.88878217  0.29070823    -0.90000
C426        C  0.77526809  0.77856615  0.17883655     1.14800
C427        C  0.67867283  0.89546117  0.03325743     0.81800
N428        N  0.69170735  0.88532860  0.00690964    -0.76500
C429        C  0.67923276  0.89289376  0.97969155     0.84200
N430        N  0.65314494  0.90969090  0.97883129    -0.76500
C431        C  0.63999716  0.91970886  0.00515130     0.84300
N432        N  0.65246964  0.91219170  0.03244845    -0.78200
C433        C  0.81260604  0.73760403  0.98009986     0.81800
N434        N  0.83124826  0.71259538  0.97929693    -0.76500
C435        C  0.84184709  0.69998154  0.00557219     0.84200
N436        N  0.83366031  0.71250162  0.03301803    -0.76500
C437        C  0.81502697  0.73758313  0.03433977     0.84300
N438        N  0.80443382  0.75010703  0.00774364    -0.78200
C439        C  0.83395428  0.06129528  0.69313048     0.81800
N440        N  0.85129627  0.06222216  0.66741333    -0.76500
C441        C  0.86225792  0.03597707  0.65485881     0.84200
N442        N  0.85514722  0.00865116  0.66755380    -0.76500
C443        C  0.83788093  0.00778394  0.69341060     0.84300
N444        N  0.82681075  0.03406161  0.70583276    -0.78200
C445        C  0.67953120  0.00715907  0.82964866     0.81800
N446        N  0.65447105  0.00830975  0.84830285    -0.76500
C447        C  0.64174732  0.03567647  0.85644762     0.84200
N448        N  0.65413250  0.06205215  0.84578507    -0.76500
C449        C  0.67912192  0.06141071  0.82711574     0.84300
N450        N  0.69182680  0.03384240  0.81898704    -0.78200
C451        C  0.99482759  0.87143480  0.68037692     0.81800
N452        N  0.96883868  0.86398322  0.69578340    -0.76500
C453        C  0.94110671  0.87334668  0.68521020     0.84200
N454        N  0.93949097  0.89003522  0.65897635    -0.76500
C455        C  0.96558318  0.89741743  0.64355953     0.84300
N456        N  0.99307800  0.88802166  0.65432869    -0.78200
C457        C  0.97038167  0.73875186  0.84491621     0.81800
N458        N  0.97247392  0.71440246  0.86379606    -0.76500
C459        C  0.00012551  0.70454907  0.87351805     0.84200
N460        N  0.02593799  0.71878600  0.86397224    -0.76500
C461        C  0.02392061  0.74328547  0.84508073     0.84300
N462        N  0.99612857  0.75308462  0.83521092    -0.78200
N463        N  0.96913888  0.97934271  0.45557906    -0.04500
N464        N  0.96008513  0.96489445  0.43051454    -0.56700
N465        N  0.99181940  0.97213260  0.52925161    -0.04200
N466        N  0.99873396  0.95512885  0.55323056    -0.58800
N467        N  0.96196139  0.97424097  0.52621198    -0.03800
N468        N  0.94789397  0.95876806  0.54802405    -0.56600
N469        N  0.99900020  0.97703811  0.45855297    -0.03500
N470        N  0.01091494  0.96104005  0.43558349    -0.59100
C471        C  0.98641290  0.95368993  0.41826983     0.97600
C472        C  0.97109816  0.94688198  0.56454488     0.97400
N473        N  0.04636579  0.04952608  0.54082082    -0.04700
N474        N  0.05912993  0.05688560  0.56713873    -0.57200
N475        N  0.05087741  0.02534363  0.46741408    -0.02800
N476        N  0.06304060  0.01644117  0.44111156    -0.58500
N477        N  0.05278769  0.05529525  0.47043702    -0.04800
N478        N  0.06629586  0.06729567  0.44628086    -0.57500
N479        N  0.04464087  0.01956337  0.53788110    -0.02500
N480        N  0.05616211  0.00591348  0.56214906    -0.58600
Mn481      Mn  0.02255865  0.99771981  0.49833270     1.18400
C482        C  0.06503021  0.02948445  0.58001673     0.99700
C483        C  0.07278312  0.04280241  0.42851727     1.00400
N484        N  0.91648873  0.02892881  0.52674718    -0.04800
N485        N  0.90321644  0.01684993  0.55099826    -0.61100
N486        N  0.92434502  0.06476384  0.45931378    -0.03600
N487        N  0.91275383  0.07844456  0.43510231    -0.61800
N488        N  0.92264789  0.03481456  0.45632524    -0.04300
N489        N  0.90983647  0.02747771  0.43002673    -0.61300
N490        N  0.91843082  0.05887531  0.52983735    -0.03200
N491        N  0.90651799  0.06769293  0.55628251    -0.62000
Mn492      Mn  0.94152341  0.00371794  0.49085788     1.10700
C493        C  0.89691274  0.04128950  0.56889889     1.00900
C494        C  0.90387081  0.05489514  0.41722234     1.01000
N495        N  0.00709846  0.10997893  0.47062500    -0.04300
N496        N  0.02107362  0.12539704  0.44870299    -0.59700
N497        N  0.97013114  0.10745197  0.53837387    -0.03600
N498        N  0.95820909  0.12375893  0.56111818    -0.56400
N499        N  0.99999683  0.10523995  0.54133386    -0.04900
N500        N  0.00904596  0.12007995  0.56618326    -0.59200
N501        N  0.97722174  0.11209675  0.46769527    -0.03900
N502        N  0.97021156  0.12904408  0.44370424    -0.56400
Mn503      Mn  0.02760492  0.08062600  0.50615050     1.20200
Mn504      Mn  0.94655842  0.08657488  0.49876007     1.10100
Cl505      Cl  0.98457121  0.04216260  0.49852537    -0.84400
C506        C  0.99779516  0.13725452  0.43224234     0.97900
C507        C  0.98269934  0.13140497  0.57830765     0.97700
N508        N  0.96203038  0.50329612  0.05877956    -0.04500
N509        N  0.94840347  0.47915720  0.07059179    -0.56700
N510        N  0.99766931  0.57085448  0.06654428    -0.04200
N511        N  0.00962754  0.59504067  0.08006584    -0.58800
N512        N  0.96771131  0.57381372  0.06463426    -0.03800
N513        N  0.95877006  0.60010088  0.07682316    -0.56600
N514        N  0.99199148  0.50040913  0.06051408    -0.03500
N515        N  0.99936760  0.47424889  0.07358095    -0.59100
C516        C  0.97197572  0.46141703  0.07964550     0.97600
C517        C  0.98510859  0.61276140  0.08655886     0.97400
N518        N  0.05457578  0.57335414  0.99124681    -0.04700
N519        N  0.07167379  0.59725887  0.98425877    -0.57200
N520        N  0.04771197  0.49976067  0.01415425    -0.02800
N521        N  0.06259623  0.47498255  0.02329328    -0.58500
N522        N  0.04996083  0.50264760  0.98428890    -0.04800
N523        N  0.06634224  0.47990933  0.97245473    -0.57500
N524        N  0.05245967  0.57041515  0.02110850    -0.02500
N525        N  0.06801747  0.59221871  0.03510748    -0.58600
Mn526      Mn  0.02305774  0.53501039  0.04160359     1.18400
C527        C  0.07996250  0.60863473  0.01185902     0.99700
C528        C  0.07398855  0.46281081  0.99700457     1.00400
N529        N  0.91917063  0.58222964  0.01300622    -0.04800
N530        N  0.90311830  0.60513512  0.02496113    -0.61100
N531        N  0.91658914  0.51433636  0.97612476    -0.03600
N532        N  0.90121748  0.49235030  0.96216987    -0.61800
N533        N  0.91451390  0.51141314  0.00599319    -0.04300
N534        N  0.89763685  0.48735589  0.01301838    -0.61300
N535        N  0.92138433  0.58517428  0.98314888    -0.03200
N536        N  0.90679720  0.61018406  0.97413442    -0.62000
Mn537      Mn  0.94006865  0.54262982  0.03655285     1.10700
C538        C  0.89561737  0.62241112  0.00049968     1.00900
C539        C  0.88942073  0.47584374  0.98545016     1.01000
N540        N  0.00133228  0.51105487  0.93259163    -0.04300
N541        N  0.01022237  0.48464579  0.92062981    -0.59700
N542        N  0.97704748  0.58450546  0.93681594    -0.03600
N543        N  0.96966585  0.61080917  0.92403882    -0.56400
N544        N  0.00701103  0.58160862  0.93853422    -0.04900
N545        N  0.02062836  0.60588895  0.92699909    -0.59200
N546        N  0.97137503  0.51404928  0.93066017    -0.03900
N547        N  0.95938193  0.48977007  0.91734496    -0.56400
Mn548      Mn  0.02899764  0.54221633  0.96067985     1.20200
Mn549      Mn  0.94597127  0.54986703  0.95563896     1.10100
Cl550      Cl  0.98452864  0.54241395  0.99860998    -0.84400
C551        C  0.98386160  0.47195031  0.91099950     0.97900
C552        C  0.99705227  0.62371572  0.91812110     0.97700
N553        N  0.45627521  0.11102994  0.98575649    -0.04500
N554        N  0.43217567  0.12465391  0.97376420    -0.56700
N555        N  0.52373451  0.10282160  0.02148454    -0.04200
N556        N  0.54802378  0.11434948  0.03510591    -0.58800
N557        N  0.52667669  0.10445474  0.99153333    -0.03800
N558        N  0.55302353  0.11715623  0.98415287    -0.56600
N559        N  0.45328384  0.10922023  0.01570678    -0.03500
N560        N  0.42707234  0.12157863  0.02461351    -0.59100
C561        C  0.41448696  0.13132419  0.99825996     0.97600
C562        C  0.56591284  0.12312152  0.01153146     0.97400
N563        N  0.51188257  0.02024047  0.06687021    -0.04700
N564        N  0.53363963  0.00615345  0.08239176    -0.57200
N565        N  0.44438187  0.05745522  0.06417733    -0.02800
N566        N  0.42160322  0.06941974  0.08040259    -0.58500
N567        N  0.44132535  0.02759034  0.06190930    -0.04800
N568        N  0.41639707  0.01858411  0.07660419    -0.57500
N569        N  0.51499188  0.05010484  0.06894601    -0.02500
N570        N  0.53895753  0.05700402  0.08597563    -0.58600
Mn571      Mn  0.48415152  0.08087698  0.04336169     1.18400
C572        C  0.55019234  0.02935507  0.09426822     0.99700
C573        C  0.40431722  0.04494219  0.08791483     1.00400
N574        N  0.52710702  0.05789497  0.93605491    -0.04800
N575        N  0.55210499  0.06682983  0.92141331    -0.61100
N576        N  0.45339384  0.03533964  0.92903201    -0.03600
N577        N  0.42943265  0.02836104  0.91201861    -0.61800
N578        N  0.45640875  0.06521771  0.93111583    -0.04300
N579        N  0.43457527  0.07922452  0.91560668    -0.61300
N580        N  0.52405601  0.02802646  0.93386932    -0.03200
N581        N  0.54688408  0.01599086  0.91776840    -0.62000
Mn582      Mn  0.49195507  0.08568720  0.96049130     1.10700
C583        C  0.56421807  0.04041868  0.91022824     1.00900
C584        C  0.41807683  0.05596523  0.90372987     1.01000
N585        N  0.44175317  0.98102285  0.00643111    -0.04300
N586        N  0.41540929  0.96830283  0.01378302    -0.59700
N587        N  0.51520995  0.97640099  0.98238058    -0.03600
N588        N  0.54148017  0.96412846  0.97353868    -0.56400
N589        N  0.51215094  0.97456352  0.01231842    -0.04900
N590        N  0.53625485  0.96100923  0.02437698    -0.59200
N591        N  0.44474062  0.98263202  0.97648624    -0.03900
N592        N  0.42048698  0.97106900  0.96283399    -0.56400
Mn593      Mn  0.47641983  0.99982904  0.03748719     1.20200
Mn594      Mn  0.48429995  0.00463447  0.95466313     1.10100
Cl595      Cl  0.48419206  0.04276807  0.99900048    -0.84400
C596        C  0.40257195  0.96230079  0.98638920     0.97900
C597        C  0.55401975  0.95441196  0.99992283     0.97700
O598        O  0.77153398  0.68832650  0.76021464    -0.86600
C599        C  0.68777132  0.80978872  0.85444934     1.13400
O600        O  0.76050047  0.75784058  0.75818645    -1.34400
O601        O  0.65905029  0.74223660  0.81181969    -0.88100
O602        O  0.79103440  0.70928792  0.71772006    -0.88800
O603        O  0.72396242  0.74591028  0.69412753    -0.77600
O604        O  0.71838051  0.71641167  0.79094326    -0.99700
C605        C  0.65722719  0.79715384  0.72414409     1.23500
O606        O  0.73440214  0.80950866  0.73184966    -1.34600
Mn607      Mn  0.75322349  0.80309539  0.77719755     1.82100
O608        O  0.67161220  0.77246298  0.72025293    -0.76600
O609        O  0.63870174  0.78473695  0.79153683    -0.86000
C610        C  0.72072443  0.86269913  0.79011197     1.14600
C611        C  0.63678011  0.75741262  0.80094558     1.09300
O612        O  0.79718575  0.82138330  0.76878755    -0.77600
O613        O  0.70826333  0.78361460  0.78369288    -1.31300
O614        O  0.80036762  0.80074237  0.72463858    -0.96800
C615        C  0.70816364  0.82860624  0.66076202     1.08000
Mn616      Mn  0.67266428  0.81736035  0.78516315     1.48600
O617        O  0.73490383  0.81725254  0.66181191    -0.86000
Mn618      Mn  0.79607766  0.75601999  0.72445847     1.49600
O619        O  0.80967945  0.73013832  0.79984340    -0.89900
C620        C  0.70352001  0.70441163  0.77048707     1.21200
C621        C  0.83197411  0.74074145  0.78450976     1.13300
Mn622      Mn  0.71555757  0.76419971  0.73863595     1.81000
O623        O  0.70103745  0.85057760  0.77457135    -0.95000
Mn624      Mn  0.76299083  0.72281534  0.79236103     1.49300
C625        C  0.78113371  0.68672734  0.73283627     1.09800
Mn626      Mn  0.70113809  0.84553650  0.73007659     1.49900
C627        C  0.76075534  0.88041959  0.71236849     1.12700
O628        O  0.76772427  0.76643800  0.69116523    -1.00800
O629        O  0.67764727  0.82456871  0.83178541    -0.90500
C630        C  0.74801790  0.75086508  0.67912417     1.24000
O631        O  0.66844831  0.81682079  0.74046672    -1.01200
O632        O  0.69737628  0.78238410  0.85315357    -0.88600
O633        O  0.73398881  0.87947833  0.72365861    -0.88200
O634        O  0.83006054  0.74983310  0.75708627    -0.88200
Mn635      Mn  0.70576128  0.74978310  0.81903222     1.47900
O636        O  0.74479561  0.84774405  0.79512784    -0.76700
C637        C  0.81160104  0.81722754  0.74416409     1.17000
O638        O  0.69834203  0.71966757  0.74672875    -0.75400
O639        O  0.77044290  0.79540304  0.82179602    -0.75100
Mn640      Mn  0.76770399  0.81098653  0.69585028     1.51100
O641        O  0.69431536  0.84035436  0.68346435    -0.87400
O642        O  0.75034971  0.75123727  0.82538710    -0.94900
O643        O  0.77459107  0.85763712  0.70074873    -0.90000
C644        C  0.76524121  0.77175975  0.83723047     1.14800
C645        C  0.32959317  0.84182468  0.53818309     0.81800
N646        N  0.31959527  0.83242798  0.51030203    -0.76500
C647        C  0.32934676  0.84701054  0.48472557     0.84200
N648        N  0.34840113  0.87121889  0.48708845    -0.76500
C649        C  0.35824767  0.88067703  0.51483841     0.84300
N650        N  0.34865909  0.86617699  0.54047413    -0.78200
C651        C  0.16623996  0.71352904  0.50951524     0.81800
N652        N  0.18157513  0.72130772  0.48358585    -0.76500
C653        C  0.17112931  0.71195738  0.45579898     0.84200
N654        N  0.14507028  0.69498290  0.45406672    -0.76500
C655        C  0.12972017  0.68726519  0.48009410     0.84300
N656        N  0.14037174  0.69664481  0.50764593    -0.78200
C657        C  0.80234750  0.37157544  0.48823023     0.81800
N658        N  0.82832115  0.38831257  0.48987873    -0.76500
C659        C  0.83908052  0.39788071  0.51731787     0.84200
N660        N  0.82374577  0.39052299  0.54344860    -0.76500
C661        C  0.79759382  0.37368994  0.54193534     0.84300
N662        N  0.78701531  0.36414872  0.51426515    -0.78200
C663        C  0.63875597  0.23862890  0.51274357     0.81800
N664        N  0.64840009  0.25272438  0.48685919    -0.76500
C665        C  0.63818810  0.24288333  0.45921396     0.84200
N666        N  0.61901575  0.21857854  0.45746885    -0.76500
C667        C  0.60953358  0.20457901  0.48341811     0.84300
N668        N  0.61959452  0.21446594  0.51093361    -0.78200
C669        C  0.63468724  0.84829047  0.48002231     0.81800
N670        N  0.61720237  0.87391827  0.47926661    -0.76500
C671        C  0.60622610  0.88629495  0.50557351     0.84200
N672        N  0.61345077  0.87350098  0.53281446    -0.76500
C673        C  0.63085677  0.84771758  0.53352552     0.84300
N674        N  0.64195334  0.83548259  0.50716984    -0.78200
C675        C  0.78899497  0.71240068  0.53435856     0.81800
N676        N  0.81410762  0.69382773  0.53287104    -0.76500
C677        C  0.82667727  0.68596064  0.50536167     0.84200
N678        N  0.81407476  0.69681422  0.47918289    -0.76500
C679        C  0.78903262  0.71540685  0.48015299     0.84300
N680        N  0.77648420  0.72325921  0.50786443    -0.78200
C681        C  0.44988221  0.39578071  0.80451372     0.81800
N682        N  0.47618896  0.38518585  0.79175261    -0.76500
C683        C  0.50341739  0.39229279  0.80449559     0.84200
N684        N  0.50431665  0.40911145  0.83056859    -0.76500
C685        C  0.47804410  0.41959553  0.84345267     0.84300
N686        N  0.45072927  0.41253113  0.83071430    -0.78200
C687        C  0.50315946  0.23831050  0.67061525     0.81800
N688        N  0.47559081  0.25098117  0.67879626    -0.76500
C689        C  0.44889870  0.23850254  0.66835546     0.84200
N690        N  0.45004872  0.21330641  0.64986855    -0.76500
C691        C  0.47741540  0.20062796  0.64166897     0.84300
N692        N  0.50379055  0.21319182  0.65211097    -0.78200
C693        C  0.46525813  0.84820533  0.32645614     0.81800
N694        N  0.46432591  0.87318969  0.34513822    -0.76500
C695        C  0.49054298  0.88578322  0.35594729     0.84200
N696        N  0.51804258  0.87326627  0.34794874    -0.76500
C697        C  0.51948225  0.84821836  0.32927892     0.84300
N698        N  0.49295646  0.83571251  0.31847307    -0.78200
C699        C  0.51886963  0.68822102  0.19417935     0.81800
N700        N  0.51779919  0.67164499  0.16788529    -0.76500
C701        C  0.49040024  0.66505644  0.15508910     0.84200
N702        N  0.46426933  0.67584016  0.16800355    -0.76500
C703        C  0.46536894  0.69249403  0.19416690     0.84300
N704        N  0.49269505  0.69914306  0.20696915    -0.78200
C705        C  0.78284287  0.50331935  0.34492119     0.81800
N706        N  0.80733160  0.50127992  0.36383301    -0.76500
C707        C  0.82170444  0.52707343  0.37325350     0.84200
N708        N  0.81197798  0.55472606  0.36340358    -0.76500
C709        C  0.78762704  0.55684821  0.34452794     0.84300
N710        N  0.77316662  0.53111997  0.33493453    -0.78200
C711        C  0.65227157  0.58567452  0.18690702     0.81800
N712        N  0.66172995  0.55791625  0.19735832    -0.76500
C713        C  0.65429245  0.53194108  0.18188627     0.84200
N714        N  0.63763954  0.53374666  0.15586670    -0.76500
C715        C  0.62814864  0.56126591  0.14519878     0.84300
N716        N  0.63553407  0.58733055  0.16069510    -0.78200
C717        C  0.49822009  0.69725610  0.80307122     0.81800
N718        N  0.47249726  0.70669646  0.78852958    -0.76500
C719        C  0.44471428  0.69665756  0.79819958     0.84200
N720        N  0.44268182  0.67783023  0.82275037    -0.76500
C721        C  0.46846834  0.66854893  0.83719921     0.84300
N722        N  0.49610855  0.67845332  0.82748056    -0.78200
C723        C  0.47380331  0.86012174  0.66974692     0.81800
N724        N  0.49987713  0.84486904  0.67722679    -0.76500
C725        C  0.52756627  0.85569255  0.66800554     0.84200
N726        N  0.52905322  0.88202480  0.65144361    -0.76500
C727        C  0.50288042  0.89729041  0.64402931     0.84300
N728        N  0.47543167  0.88626627  0.65327945    -0.78200
C729        C  0.78929339  0.56144835  0.64929374     0.81800
N730        N  0.77695273  0.53405847  0.65649677    -0.76500
C731        C  0.78953302  0.50793660  0.64522817     0.84200
N732        N  0.81520534  0.50912559  0.62770440    -0.76500
C733        C  0.82753275  0.53660906  0.62052856     0.84300
N734        N  0.81481614  0.56269021  0.63168816    -0.78200
C735        C  0.65639876  0.56128076  0.80444888     0.81800
N736        N  0.66445537  0.53374442  0.79161544    -0.76500
C737        C  0.65388786  0.50701928  0.80391257     0.84200
N738        N  0.63538261  0.50810502  0.82908852    -0.76500
C739        C  0.62730916  0.53544233  0.84193319     0.84300
N740        N  0.63788578  0.56184819  0.82954879    -0.78200
C741        C  0.31462565  0.49948280  0.81317885     0.81800
N742        N  0.33133523  0.49783223  0.83938645    -0.76500
C743        C  0.33857865  0.52389186  0.85492331     0.84200
N744        N  0.32903376  0.55139722  0.84430573    -0.76500
C745        C  0.31241479  0.55317716  0.81828019     0.84300
N746        N  0.30509913  0.52721464  0.80274633    -0.78200
C747        C  0.18472895  0.58227942  0.65219002     0.81800
N748        N  0.19425232  0.55456887  0.66254931    -0.76500
C749        C  0.17984233  0.52876529  0.65308189     0.84200
N750        N  0.15566670  0.53074438  0.63395361    -0.76500
C751        C  0.14609203  0.55833071  0.62375169     0.84300
N752        N  0.16041679  0.58417701  0.63306263    -0.78200
N753        N  0.02384788  0.47776115  0.48406358    -0.04500
N754        N  0.04673453  0.46160369  0.47220568    -0.56700
N755        N  0.95610762  0.47518981  0.52099029    -0.04200
N756        N  0.93426643  0.45972551  0.53502147    -0.58800
N757        N  0.95314621  0.47302264  0.49113501    -0.03800
N758        N  0.92919272  0.45598438  0.48418111    -0.56600
N759        N  0.02676571  0.48006198  0.51392589    -0.03500
N760        N  0.05171693  0.46545429  0.52303254    -0.59100
C761        C  0.06395210  0.45415711  0.49673702     0.97600
C762        C  0.91781140  0.44778833  0.51179275     0.97400
N763        N  0.95263415  0.55987902  0.56446505    -0.04700
N764        N  0.92616175  0.56876121  0.57627766    -0.57200
N765        N  0.02609464  0.53561541  0.56032963    -0.02800
N766        N  0.05237212  0.52819076  0.57312152    -0.58500
N767        N  0.02322535  0.56557466  0.55861258    -0.04800
N768        N  0.04751426  0.57917202  0.57017709    -0.57500
N769        N  0.95563648  0.52992581  0.56641055    -0.02500
N770        N  0.93130183  0.51791081  0.57959298    -0.58600
Mn771      Mn  0.99149997  0.50459477  0.54145453     1.18400
C772        C  0.91343858  0.54238864  0.58583127     0.99700
C773        C  0.06530469  0.55555738  0.57906035     1.00400
N774        N  0.94465705  0.52036222  0.43834151    -0.04800
N775        N  0.92036547  0.50668178  0.42688678    -0.61100
N776        N  0.01215275  0.55605656  0.43021247    -0.03600
N777        N  0.03630162  0.56803441  0.41665756    -0.61800
N778        N  0.01516478  0.52610674  0.43215684    -0.04300
N779        N  0.04145036  0.51718457  0.41996313    -0.61300
N780        N  0.94171286  0.55032140  0.43659963    -0.03200
N781        N  0.91535992  0.55764434  0.42388025    -0.62000
Mn782      Mn  0.98416180  0.49852452  0.46044852     1.10700
C783        C  0.90247343  0.53022085  0.41802797     1.00900
C784        C  0.05404973  0.54353099  0.41017076     1.01000
N785        N  0.01495530  0.61289201  0.50571137    -0.04300
N786        N  0.03903756  0.62973491  0.51270927    -0.59700
N787        N  0.94125427  0.60608415  0.48291949    -0.03600
N788        N  0.91635253  0.62082613  0.47387056    -0.56400
N789        N  0.94423528  0.60836391  0.51277263    -0.04900
N790        N  0.92145149  0.62462018  0.52468525    -0.59200
N791        N  0.01200355  0.61076839  0.47584260    -0.03900
N792        N  0.03400350  0.62607819  0.46186328    -0.56400
Mn793      Mn  0.98382082  0.58746756  0.53636963     1.20200
Mn794      Mn  0.97642862  0.58142924  0.45534709     1.10100
Cl795      Cl  0.98398902  0.54300891  0.49839513    -0.84400
C796        C  0.05053327  0.63787739  0.48512792     0.97900
C797        C  0.90422036  0.63216715  0.50020344     0.97700
N798        N  0.50675370  0.48268620  0.03869097    -0.04500
N799        N  0.52040757  0.47110679  0.06292438    -0.56700
N800        N  0.47090419  0.47458157  0.97128295    -0.04200
N801        N  0.45884501  0.46099519  0.94718875    -0.58800
N802        N  0.50085578  0.47641830  0.96823410    -0.03800
N803        N  0.50969747  0.46411161  0.94197585    -0.56600
N804        N  0.47680111  0.48103608  0.04166219    -0.03500
N805        N  0.46944771  0.46827517  0.06797599    -0.59100
C806        C  0.49684643  0.46228713  0.08080769     0.97600
C807        C  0.48330373  0.45437922  0.92943329     0.97400
N808        N  0.41406963  0.54998333  0.96859811    -0.04700
N809        N  0.39684219  0.55689663  0.94478942    -0.57200
N810        N  0.42124009  0.52746761  0.04217227    -0.02800
N811        N  0.40649888  0.51841009  0.06704988    -0.58500
N812        N  0.41897341  0.55733181  0.03916264    -0.04800
N813        N  0.40269434  0.56925171  0.06193342    -0.57500
N814        N  0.41616690  0.52012592  0.97166804    -0.02500
N815        N  0.40045718  0.50604013  0.95003656    -0.58600
Mn816      Mn  0.44568396  0.49978232  0.00704080     1.18400
C817        C  0.38845302  0.52925146  0.93360570     0.99700
C818        C  0.39515479  0.54473834  0.07915956     1.00400
N819        N  0.54950595  0.52795487  0.95940414    -0.04800
N820        N  0.56568415  0.51587644  0.93665155    -0.61100
N821        N  0.55221361  0.56526765  0.02704105    -0.03600
N822        N  0.56753205  0.57931649  0.04900669    -0.61800
N823        N  0.55426830  0.53539833  0.03010670    -0.04300
N824        N  0.57106665  0.52846783  0.05423164    -0.61300
N825        N  0.54731072  0.55780680  0.95629169    -0.03200
N826        N  0.56202826  0.56669795  0.93132182    -0.62000
Mn827      Mn  0.52862952  0.50465912  0.99916124     1.10700
C828        C  0.57326636  0.54026509  0.91929283     1.00900
C829        C  0.57927378  0.55608864  0.06563768     1.01000
N830        N  0.46753647  0.60909412  0.03006657    -0.04300
N831        N  0.45864063  0.62153221  0.05623565    -0.59700
N832        N  0.49163824  0.60423488  0.95669744    -0.03600
N833        N  0.49896290  0.61706774  0.93040555    -0.56400
N834        N  0.46167784  0.60259089  0.95969673    -0.04900
N835        N  0.44800734  0.61423576  0.93550040    -0.59200
N836        N  0.49748850  0.61094995  0.02702989    -0.03900
N837        N  0.50949353  0.62468295  0.05106422    -0.56400
Mn838      Mn  0.43978914  0.58072149  0.99933588     1.20200
Mn839      Mn  0.52279818  0.58559813  0.99141002     1.10100
Cl840      Cl  0.48422367  0.54270906  0.99925200    -0.84400
C841        C  0.48499917  0.63137139  0.06874529     0.97900
C842        C  0.47154997  0.62308524  0.91760333     0.97700
N843        N  0.49939062  0.08562574  0.56240689    -0.04500
N844        N  0.50842428  0.11068892  0.57689337    -0.56700
N845        N  0.47662333  0.01190057  0.56955486    -0.04200
N846        N  0.46966742  0.98790510  0.58653247    -0.58800
N847        N  0.50649362  0.01488821  0.56743891    -0.03800
N848        N  0.52051461  0.99301932  0.58287951    -0.56600
N849        N  0.46952351  0.08266039  0.56467305    -0.03500
N850        N  0.45759073  0.10561573  0.58067103    -0.59100
C851        C  0.48207308  0.12293284  0.58807189     0.97600
C852        C  0.49727975  0.97651588  0.59476261     0.97400
N853        N  0.42201221  0.00049280  0.49223112    -0.04700
N854        N  0.40912370  0.97422403  0.48488965    -0.57200
N855        N  0.41768840  0.07395268  0.51636128    -0.02800
N856        N  0.40544510  0.10023287  0.52524858    -0.58500
N857        N  0.41577350  0.07090925  0.48642250    -0.04800
N858        N  0.40219167  0.09502425  0.47441866    -0.57500
N859        N  0.42373564  0.00344384  0.52217984    -0.02500
N860        N  0.41208700  0.97923519  0.53583536    -0.58600
Mn861      Mn  0.44593294  0.04293293  0.54398692     1.18400
C862        C  0.40314151  0.96138823  0.51228518     0.99700
C863        C  0.39565724  0.11279262  0.49889282     1.00400
N864        N  0.55199750  0.01442651  0.51273843    -0.04800
N865        N  0.56530957  0.99018519  0.52478866    -0.61100
N866        N  0.54409975  0.08188518  0.47696611    -0.03600
N867        N  0.55565235  0.10612916  0.46330667    -0.61800
N868        N  0.54583168  0.08484482  0.50690890    -0.04300
N869        N  0.55863395  0.11115242  0.51425175    -0.61300
N870        N  0.55005048  0.01134822  0.48279997    -0.03200
N871        N  0.56199856  0.98491497  0.47397061    -0.62000
Mn872      Mn  0.52697046  0.05029799  0.53799142     1.10700
C873        C  0.57163033  0.97229443  0.50035392     1.00900
C874        C  0.56454656  0.12399762  0.48685211     1.01000
N875        N  0.46136150  0.07054758  0.43173088    -0.04300
N876        N  0.44734881  0.09234568  0.41618905    -0.59700
N877        N  0.49827921  0.00282033  0.43429621    -0.03600
N878        N  0.51014342  0.98008606  0.41793589    -0.56400
N879        N  0.46840918  0.99988043  0.43655864    -0.04900
N880        N  0.45930336  0.97506266  0.42170283    -0.59200
N881        N  0.49123555  0.07350715  0.42958864    -0.03900
N882        N  0.49820324  0.09741115  0.41249016    -0.56400
Mn883      Mn  0.44086266  0.03510797  0.46113660     1.20200
Mn884      Mn  0.52189898  0.04244044  0.45513446     1.10100
Cl885      Cl  0.48391698  0.04268640  0.49955822    -0.84400
C886        C  0.47059211  0.10877871  0.40422682     0.97900
C887        C  0.48561500  0.96292679  0.41032015     0.97700
O888        O  0.17797413  0.37579043  0.28125740    -0.86600
C889        C  0.20775761  0.20453308  0.28543001     1.13400
O890        O  0.20822586  0.32741667  0.24026914    -1.34400
O891        O  0.23376071  0.26731343  0.33615678    -0.88100
O892        O  0.19723889  0.39695725  0.23877097    -0.88800
O893        O  0.27040714  0.36540017  0.25199991    -0.77600
O894        O  0.20102530  0.31840455  0.30724448    -0.99700
C895        C  0.31155027  0.28772165  0.27373671     1.23500
O896        O  0.26041580  0.30171805  0.21451033    -1.34600
Mn897      Mn  0.21541425  0.28229766  0.22092227     1.82100
O898        O  0.29713487  0.31235311  0.27790103    -0.76600
O899        O  0.27438167  0.24444281  0.31430009    -0.86000
C900        C  0.24770190  0.22266143  0.20757838     1.14600
C901        C  0.26053190  0.25601771  0.33708658     1.09300
O902        O  0.19831942  0.29028951  0.17636279    -0.77600
O903        O  0.23423197  0.27551968  0.26620208    -1.31300
O904        O  0.21846938  0.33446729  0.17300764    -0.96800
C905        C  0.33200497  0.32787706  0.19746211     1.08000
Mn906      Mn  0.26746145  0.23942962  0.26770589     1.48600
O907        O  0.30973871  0.34333906  0.18697761    -0.86000
Mn908      Mn  0.20574971  0.36264040  0.20631871     1.49600
O909        O  0.13867400  0.33568988  0.24159430    -0.89900
C910        C  0.22075418  0.33391095  0.31933859     1.21200
C911        C  0.13675760  0.34473452  0.21416030     1.13300
Mn912      Mn  0.25316974  0.32082059  0.25972023     1.81000
O913        O  0.26745076  0.23462068  0.22316550    -0.95000
Mn914      Mn  0.17268708  0.32913118  0.27408751     1.49300
C915        C  0.18788323  0.39842197  0.26625387     1.09800
Mn916      Mn  0.29588636  0.26783812  0.21265170     1.49900
C917        C  0.28090859  0.27616478  0.14338252     1.12700
O918        O  0.25034741  0.36904483  0.20783318    -1.00800
O919        O  0.23453861  0.20546089  0.27413305    -0.90500
C920        C  0.26517899  0.38088524  0.22840680     1.24000
O921        O  0.30026086  0.26811932  0.25735722    -1.01200
O922        O  0.19394384  0.22732355  0.29704164    -0.88600
O923        O  0.29067421  0.26097112  0.16594532    -0.88200
O924        O  0.15906294  0.35526491  0.19878407    -0.88200
Mn925      Mn  0.20093049  0.27389432  0.30221500     1.47900
O926        O  0.22367575  0.23773219  0.20269900    -0.76700
C927        C  0.20367595  0.31394765  0.16100899     1.17000
O928        O  0.24483800  0.33882875  0.30436583    -0.75400
O929        O  0.17140114  0.26412166  0.22920314    -0.75100
Mn930      Mn  0.26305166  0.33589528  0.17949418     1.51100
O931        O  0.33001154  0.30037333  0.20635093    -0.87400
O932        O  0.16820559  0.28440845  0.27353741    -0.94900
O933        O  0.27160853  0.30366674  0.14499797    -0.90000
C934        C  0.15695294  0.26812835  0.25383263     1.14800
C935        C  0.11877544  0.56003981  0.60599500    -0.11700
C936        C  0.09460852  0.55898890  0.59303031    -0.13300
C937        C  0.35602117  0.52290727  0.88284341    -0.11700
C938        C  0.37061277  0.52503575  0.90621218    -0.13300
C939        C  0.60787319  0.53660338  0.86895215    -0.11700
C940        C  0.59191938  0.53830281  0.89175751    -0.13300
C941        C  0.85689463  0.53799393  0.60615621    -0.11700
C942        C  0.88265096  0.54003609  0.59667911    -0.13300
C943        C  0.50367490  0.92538112  0.62675867    -0.11700
C944        C  0.50145458  0.94889012  0.61234559    -0.13300
C945        C  0.46673896  0.65073120  0.86449666    -0.11700
C946        C  0.46796912  0.63746120  0.88849679    -0.13300
C947        C  0.59662297  0.56024021  0.09344936    -0.11700
C948        C  0.61088989  0.56228135  0.11707929    -0.13300
C949        C  0.87320051  0.52661781  0.40399408    -0.11700
C950        C  0.84906805  0.52534452  0.39096441    -0.13300
C951        C  0.48732604  0.64244772  0.09943127    -0.11700
C952        C  0.48920222  0.65158805  0.12530911    -0.13300
C953        C  0.48905199  0.91270643  0.37550608    -0.11700
C954        C  0.48734823  0.93545891  0.39154561    -0.13300
C955        C  0.47862496  0.17354393  0.62231783    -0.11700
C956        C  0.48026894  0.15063473  0.60649661    -0.13300
C957        C  0.47909584  0.43349488  0.87306774    -0.11700
C958        C  0.48094777  0.44304121  0.89881699    -0.13300
C959        C  0.87660661  0.65072822  0.50202600    -0.11700
C960        C  0.85372916  0.66657975  0.50381546    -0.13300
C961        C  0.58253087  0.94152619  0.50276080    -0.11700
C962        C  0.59196641  0.91573826  0.50466800    -0.13300
C963        C  0.57858851  0.15323859  0.48328370    -0.11700
C964        C  0.59165854  0.17733334  0.48196425    -0.13300
C965        C  0.86695519  0.41544048  0.51816018    -0.11700
C966        C  0.89032037  0.43005505  0.51596956    -0.13300
C967        C  0.10177093  0.66977404  0.47901617    -0.11700
C968        C  0.07825146  0.65534416  0.48104061    -0.13300
C969        C  0.37600695  0.90799430  0.51686706    -0.11700
C970        C  0.38904245  0.93213982  0.51581696    -0.13300
C971        C  0.69275791  0.67300282  0.77378675    -0.16900
C972        C  0.68480815  0.64661951  0.77808514     0.07100
C973        C  0.67577076  0.61579821  0.78477714     0.09000
C974        C  0.66762469  0.59021001  0.79226049    -0.17800
C975        C  0.77958768  0.65803024  0.71735700    -0.16900
C976        C  0.77764881  0.63543453  0.70181252     0.07100
C977        C  0.77699048  0.61002343  0.68214387     0.09000
C978        C  0.77998576  0.58808998  0.66579960    -0.17800
C979        C  0.62851434  0.80346415  0.70905470    -0.16900
C980        C  0.60508169  0.81290415  0.69763494     0.07100
C981        C  0.57815179  0.82681805  0.68573424     0.09000
C982        C  0.55527466  0.83981070  0.67688893    -0.17800
C983        C  0.52747883  0.70958288  0.79532372    -0.16900
C984        C  0.55293431  0.71977855  0.79361367     0.07100
C985        C  0.58266424  0.73182917  0.79556755     0.09000
C986        C  0.60765810  0.74284790  0.79847371    -0.17800
C987        C  0.75229292  0.74023946  0.64764993    -0.16900
C988        C  0.75834041  0.73352691  0.62113997     0.07100
C989        C  0.76727815  0.72664774  0.59015782     0.09000
C990        C  0.77619783  0.72066175  0.56427167    -0.17800
C991        C  0.69202101  0.82785228  0.63253341    -0.16900
C992        C  0.67616326  0.82849383  0.61021283     0.07100
C993        C  0.65725823  0.83178253  0.58459036     0.09000
C994        C  0.64304862  0.83744651  0.56188057    -0.17800
C995        C  0.00182705  0.67715556  0.89115767    -0.11700
C996        C  0.00058344  0.65299474  0.90412117    -0.13300
C997        C  0.94112860  0.74648650  0.83260240    -0.16900
C998        C  0.91572280  0.74815609  0.82229970     0.07100
C999        C  0.88606973  0.74617380  0.81009288     0.09000
C1000       C  0.86111130  0.74326111  0.79901311    -0.17800
C1001       C  0.96686938  0.92927207  0.59211724    -0.11700
C1002       C  0.96466215  0.91480300  0.61557233    -0.13300
C1003       C  0.84032959  0.83225991  0.73774356    -0.16900
C1004       C  0.86375607  0.84366846  0.72826027     0.07100
C1005       C  0.89065582  0.85559213  0.71430101     0.09000
C1006       C  0.91348272  0.86446147  0.70123402    -0.17800
C1007       C  0.61472813  0.03687032  0.87587374    -0.11700
C1008       C  0.59185173  0.03851553  0.89172702    -0.13300
C1009       C  0.69245136  0.97739460  0.82103532    -0.16900
C1010       C  0.70140559  0.95157985  0.81476832     0.07100
C1011       C  0.71033035  0.92064893  0.80761347     0.09000
C1012       C  0.71637769  0.89416920  0.80074975    -0.17800
C1013       C  0.87647914  0.03701483  0.62540768    -0.11700
C1014       C  0.88595902  0.03889447  0.59964308    -0.13300
C1015       C  0.77694270  0.90861908  0.71308462    -0.16900
C1016       C  0.79279062  0.93094857  0.71248598     0.07100
C1017       C  0.81165197  0.95660426  0.70924677     0.09000
C1018       C  0.82580280  0.97935948  0.70361234    -0.17800
C1019       C  0.86129314  0.67296644  0.00416699    -0.11700
C1020       C  0.87715260  0.65009061  0.00237067    -0.13300
C1021       C  0.80130405  0.74999233  0.95129875    -0.16900
C1022       C  0.79310493  0.75759191  0.92577421     0.07100
C1023       C  0.78402398  0.76434918  0.89499404     0.09000
C1024       C  0.77604491  0.76862583  0.86862833    -0.17800
C1025       C  0.61038193  0.93357160  0.00408489    -0.11700
C1026       C  0.58463092  0.94309959  0.00226568    -0.13300
C1027       C  0.68910613  0.87734774  0.95268988    -0.16900
C1028       C  0.69242151  0.86134017  0.93056068     0.07100
C1029       C  0.69179431  0.84159899  0.90520996     0.09000
C1030       C  0.68964123  0.82573787  0.88285978    -0.17800
C1031       C  0.78316134  0.66649560  0.29953740    -0.16900
C1032       C  0.78016686  0.64148460  0.31048053     0.07100
C1033       C  0.77816773  0.61167107  0.32230105     0.09000
C1034       C  0.77986855  0.58614411  0.33231004    -0.17800
C1035       C  0.66132079  0.61330837  0.20288828    -0.16900
C1036       C  0.67038726  0.63617161  0.21579636     0.07100
C1037       C  0.68253540  0.66315447  0.22946030     0.09000
C1038       C  0.69407091  0.68666153  0.23863482    -0.17800
C1039       C  0.61770165  0.74969811  0.21336667    -0.16900
C1040       C  0.59557966  0.73354759  0.21284060     0.07100
C1041       C  0.57014031  0.71434177  0.20980774     0.09000
C1042       C  0.54739609  0.70009129  0.20435840    -0.17800
C1043       C  0.63252517  0.81109542  0.30087673    -0.16900
C1044       C  0.60608776  0.81730603  0.30773980     0.07100
C1045       C  0.57519353  0.82641441  0.31480096     0.09000
C1046       C  0.54936598  0.83542443  0.32091234    -0.17800
C1047       C  0.65093415  0.83925965  0.45312996    -0.16900
C1048       C  0.66701200  0.83641010  0.43098721     0.07100
C1049       C  0.68644255  0.83709771  0.40539757     0.09000
C1050       C  0.70190921  0.83896946  0.38274852    -0.17800
C1051       C  0.75835175  0.75231411  0.36873586    -0.16900
C1052       C  0.76250353  0.74447793  0.39516689     0.07100
C1053       C  0.76911667  0.73535574  0.42596856     0.09000
C1054       C  0.77665414  0.72698875  0.45145766    -0.17800
C1055       C  0.68876255  0.88299075  0.06152662    -0.16900
C1056       C  0.69432750  0.86871087  0.08419730     0.07100
C1057       C  0.69755280  0.84987775  0.10984686     0.09000
C1058       C  0.69817716  0.83416583  0.13224914    -0.17800
C1059       C  0.78598113  0.77408370  0.14741712    -0.16900
C1060       C  0.79291998  0.76803797  0.12096248     0.07100
C1061       C  0.80013318  0.75918246  0.09002745     0.09000
C1062       C  0.80641465  0.75032894  0.06418399    -0.17800
C1063       C  0.60117537  0.02295616  0.12637000    -0.11700
C1064       C  0.57772675  0.02511853  0.11189983    -0.13300
C1065       C  0.72291456  0.89841486  0.20835536    -0.16900
C1066       C  0.71369581  0.92190556  0.19689962     0.07100
C1067       C  0.70000125  0.94892730  0.18500548     0.09000
C1068       C  0.68703573  0.97183898  0.17624609    -0.17800
C1069       C  0.87693906  0.05974377  0.36379276    -0.11700
C1070       C  0.88988110  0.05846728  0.38795362    -0.13300
C1071       C  0.81775796  0.99975604  0.29428402    -0.16900
C1072       C  0.80722191  0.97445842  0.29241628     0.07100
C1073       C  0.79481478  0.94488131  0.29421870     0.09000
C1074       C  0.78366356  0.91995341  0.29711023    -0.17800
C1075       C  0.98815105  0.93538141  0.39049860    -0.11700
C1076       C  0.98967129  0.91971373  0.36748729    -0.13300
C1077       C  0.93635817  0.86046746  0.29011708    -0.16900
C1078       C  0.91079363  0.85214461  0.28272414     0.07100
C1079       C  0.87997548  0.84283941  0.27633554     0.09000
C1080       C  0.85358815  0.83470293  0.27238007    -0.17800
C1081       C  0.98922083  0.66914974  0.10745422    -0.11700
C1082       C  0.98736380  0.64340343  0.09787335    -0.13300
C1083       C  0.93822398  0.74711094  0.16512183    -0.16900
C1084       C  0.91608497  0.75025994  0.18116506     0.07100
C1085       C  0.89056270  0.74965098  0.20070974     0.09000
C1086       C  0.86805376  0.74765435  0.21638238    -0.17800
C1087       C  0.21775152  0.68593570  0.70176753    -0.16900
C1088       C  0.21341175  0.66166558  0.68940499     0.07100
C1089       C  0.20632387  0.63352496  0.67529756     0.09000
C1090       C  0.19793505  0.60979395  0.66409540    -0.17800
C1091       C  0.27315716  0.66449382  0.79607834    -0.16900
C1092       C  0.28291802  0.63869155  0.79816111     0.07100
C1093       C  0.29324458  0.60826946  0.80237985     0.09000
C1094       C  0.30182189  0.58263384  0.80813256    -0.17800
C1095       C  0.34101454  0.74549732  0.76437142    -0.16900
C1096       C  0.36540681  0.73336456  0.76867402     0.07100
C1097       C  0.39360689  0.71948850  0.77598526     0.09000
C1098       C  0.41729071  0.70843106  0.78468382    -0.17800
C1099       C  0.44437011  0.84966552  0.68014633    -0.16900
C1100       C  0.41868255  0.84398203  0.68864000     0.07100
C1101       C  0.38819204  0.84019987  0.69898258     0.09000
C1102       C  0.36238733  0.83864177  0.70886560    -0.17800
C1103       C  0.28042133  0.80808796  0.64167705    -0.16900
C1104       C  0.29239032  0.81236271  0.61722002     0.07100
C1105       C  0.30625893  0.81964585  0.58903743     0.09000
C1106       C  0.31748124  0.82831844  0.56543881    -0.17800
C1107       C  0.18698919  0.75330950  0.62090151    -0.16900
C1108       C  0.18535627  0.74337687  0.59512650     0.07100
C1109       C  0.18167543  0.73285699  0.56469083     0.09000
C1110       C  0.17624155  0.72415777  0.53902124    -0.17800
C1111       C  0.05133306  0.75659876  0.83305853    -0.16900
C1112       C  0.07496655  0.76524347  0.82185563     0.07100
C1113       C  0.10309700  0.77262731  0.80788986     0.09000
C1114       C  0.12745186  0.77702933  0.79572756    -0.17800
C1115       C  0.10619719  0.83234219  0.70227160    -0.16900
C1116       C  0.08040661  0.84218676  0.70045135     0.07100
C1117       C  0.04995529  0.85249548  0.69640313     0.09000
C1118       C  0.02429149  0.86098667  0.69065453    -0.17800
C1119       C  0.36703694  0.06217499  0.87155348    -0.11700
C1120       C  0.39049485  0.06008861  0.88606702    -0.13300
C1121       C  0.28168417  0.92050843  0.78787741    -0.16900
C1122       C  0.28329986  0.94627870  0.79786251     0.07100
C1123       C  0.28693811  0.97671165  0.80845965     0.09000
C1124       C  0.29235986  0.00238040  0.81721241    -0.17800
C1125       C  0.09220755  0.02485944  0.63336784    -0.11700
C1126       C  0.07912051  0.02596092  0.60926391    -0.13300
C1127       C  0.18786141  0.89962293  0.73297628    -0.16900
C1128       C  0.17564141  0.92398054  0.72873281     0.07100
C1129       C  0.16154488  0.95210922  0.72158382     0.09000
C1130       C  0.15028802  0.97574651  0.71302027    -0.17800
C1131       C  0.34908714  0.93538407  0.98164559    -0.11700
C1132       C  0.37326204  0.94834132  0.98285073    -0.13300
C1133       C  0.25064201  0.83957258  0.85538084    -0.16900
C1134       C  0.25489547  0.85180246  0.87972648     0.07100
C1135       C  0.26188076  0.86583530  0.90792382     0.09000
C1136       C  0.27017507  0.87706193  0.93167059    -0.17800
C1137       C  0.09770265  0.63614164  0.01602296    -0.11700
C1138       C  0.11223790  0.65956731  0.01822852    -0.13300
C1139       C  0.19502878  0.74598744  0.87677103    -0.16900
C1140       C  0.18525084  0.74413996  0.90256595     0.07100
C1141       C  0.17494731  0.74010514  0.93299373     0.09000
C1142       C  0.16638782  0.73441378  0.95863018    -0.17800
C1143       C  0.77973954  0.47937493  0.65733865    -0.16900
C1144       C  0.77430765  0.45659697  0.67153209     0.07100
C1145       C  0.77111998  0.43098781  0.69046517     0.09000
C1146       C  0.77047202  0.40870592  0.70637292    -0.17800
C1147       C  0.66236871  0.47727915  0.79081492    -0.16900
C1148       C  0.66854000  0.45147452  0.78174177     0.07100
C1149       C  0.67564227  0.42054125  0.77274425     0.09000
C1150       C  0.68251679  0.39405888  0.76669576    -0.17800
C1151       C  0.60027510  0.32497142  0.79381964    -0.16900
C1152       C  0.57777567  0.34064867  0.79192074     0.07100
C1153       C  0.55235345  0.36029970  0.79149207     0.09000
C1154       C  0.53028748  0.37639467  0.79481098    -0.17800
C1155       C  0.61487063  0.26870500  0.70705369    -0.16900
C1156       C  0.58847290  0.26461398  0.69905828     0.07100
C1157       C  0.55764172  0.25807404  0.68996133     0.09000
C1158       C  0.53205646  0.25061123  0.68179713    -0.17800
C1159       C  0.68492670  0.24342823  0.62182733    -0.16900
C1160       C  0.67394577  0.24630261  0.59683502     0.07100
C1161       C  0.66176448  0.24819596  0.56718491     0.09000
C1162       C  0.65135245  0.24643672  0.54184179    -0.17800
C1163       C  0.74584698  0.33240804  0.64293321    -0.16900
C1164       C  0.75514050  0.34391204  0.61949679     0.07100
C1165       C  0.76883359  0.35592324  0.59252611     0.09000
C1166       C  0.78170646  0.36481567  0.56961608    -0.17800
C1167       C  0.76628827  0.15811718  0.70330871    -0.16900
C1168       C  0.78182713  0.13551518  0.70512247     0.07100
C1169       C  0.80145809  0.11007911  0.70556139     0.09000
C1170       C  0.81768777  0.08808557  0.70242094    -0.17800
C1171       C  0.70983644  0.17286153  0.79000029    -0.16900
C1172       C  0.70549948  0.14651762  0.79804242     0.07100
C1173       C  0.69875849  0.11578199  0.80730935     0.09000
C1174       C  0.69126100  0.09027565  0.81568349    -0.17800
C1175       C  0.97940908  0.41525000  0.89106367    -0.11700
C1176       C  0.98148937  0.44112110  0.90024356    -0.13300
C1177       C  0.92089348  0.33703171  0.84135950    -0.16900
C1178       C  0.89819194  0.33154680  0.82705982     0.07100
C1179       C  0.87278069  0.32842522  0.80784311     0.09000
C1180       C  0.85067429  0.32788814  0.79168446    -0.17800
C1181       C  0.98088092  0.15008607  0.60584943    -0.11700
C1182       C  0.97914856  0.16600580  0.62868882    -0.13300
C1183       C  0.91915299  0.22027396  0.70650722    -0.16900
C1184       C  0.89334402  0.22639831  0.71558423     0.07100
C1185       C  0.86243717  0.23344262  0.72470342     0.09000
C1186       C  0.83597173  0.24026888  0.73086535    -0.17800
C1187       C  0.85734011  0.42466528  0.97933071    -0.11700
C1188       C  0.87183707  0.44816265  0.98138180    -0.13300
C1189       C  0.80625648  0.33924353  0.92828803    -0.16900
C1190       C  0.79724419  0.32632095  0.90542585     0.07100
C1191       C  0.78529059  0.31258124  0.87841407     0.09000
C1192       C  0.77397193  0.30330837  0.85485628    -0.17800
C1193       C  0.59517997  0.13719049  0.01504224    -0.11700
C1194       C  0.61931555  0.15023163  0.01620916    -0.13300
C1195       C  0.68511637  0.24254137  0.87531148    -0.16900
C1196       C  0.68804083  0.23148243  0.90028130     0.07100
C1197       C  0.69003400  0.21933889  0.92996968     0.09000
C1198       C  0.68840023  0.20906756  0.95539583    -0.17800
C1199       C  0.66511361  0.50246687  0.19186644    -0.16900
C1200       C  0.67401413  0.47682521  0.19720755     0.07100
C1201       C  0.68475011  0.44640867  0.20069804     0.09000
C1202       C  0.69479047  0.42064029  0.20213623    -0.17800
C1203       C  0.74976508  0.39962543  0.29542109    -0.16900
C1204       C  0.75393627  0.42403453  0.30758891     0.07100
C1205       C  0.76100823  0.45222107  0.32164740     0.09000
C1206       C  0.76950019  0.47589565  0.33291345    -0.17800
C1207       C  0.78064367  0.33211170  0.37696234    -0.16900
C1208       C  0.78238824  0.34196591  0.40275492     0.07100
C1209       C  0.78636302  0.35235032  0.43319061     0.09000
C1210       C  0.79207682  0.36095171  0.45882556    -0.17800
C1211       C  0.65010845  0.25594498  0.43166877    -0.16900
C1212       C  0.66125326  0.26450182  0.40799641     0.07100
C1213       C  0.67519011  0.27194841  0.37989840     0.09000
C1214       C  0.68735455  0.27650291  0.35559372    -0.17800
C1215       C  0.68740279  0.16442984  0.20965404    -0.08700
C1216       C  0.68555935  0.13862709  0.19983251     0.07100
C1217       C  0.68156005  0.10820080  0.18941439     0.09000
C1218       C  0.67591205  0.08257081  0.18073249    -0.17800
C1219       C  0.81894522  0.10994253  0.28482997    -0.16900
C1220       C  0.80767941  0.13360111  0.27638480     0.07100
C1221       C  0.79354362  0.16166936  0.26919254     0.09000
C1222       C  0.78121742  0.18593828  0.26485649    -0.17800
C1223       C  0.77387859  0.33885029  0.12091008    -0.16900
C1224       C  0.78393915  0.34039024  0.09517112     0.07100
C1225       C  0.79456326  0.34414540  0.06476910     0.09000
C1226       C  0.80326676  0.34972884  0.03912816    -0.17800
C1227       C  0.69873163  0.20848956  0.06560430    -0.16900
C1228       C  0.70715555  0.21975967  0.08929702     0.07100
C1229       C  0.71420732  0.23376179  0.11751448     0.09000
C1230       C  0.71841344  0.24587681  0.14193977    -0.17800
C1231       C  0.96842929  0.43231137  0.09399423    -0.11700
C1232       C  0.96712843  0.40828713  0.10720141    -0.13300
C1233       C  0.02743289  0.33920298  0.16648511    -0.16900
C1234       C  0.05284814  0.33743389  0.17674109     0.07100
C1235       C  0.08257061  0.33933130  0.18878224     0.09000
C1236       C  0.10759205  0.34223101  0.19971829    -0.17800
C1237       C  0.84106074  0.30855439  0.20246790    -0.16900
C1238       C  0.86543895  0.31307093  0.19042788     0.07100
C1239       C  0.89358496  0.32055991  0.17659747     0.09000
C1240       C  0.91724383  0.32923742  0.16550156    -0.17800
C1241       C  0.00187248  0.15488846  0.40463929    -0.11700
C1242       C  0.00390843  0.16942392  0.38119700    -0.13300
C1243       C  0.05485256  0.22034474  0.29572923    -0.16900
C1244       C  0.07769155  0.22943096  0.28282818     0.07100
C1245       C  0.10464363  0.24161261  0.26918574     0.09000
C1246       C  0.12813585  0.25314270  0.26000805    -0.17800
C1247       C  0.94409885  0.22426874  0.30692803    -0.16900
C1248       C  0.91846338  0.23307262  0.30147990     0.07100
C1249       C  0.88804396  0.24363144  0.29772078     0.09000
C1250       C  0.86225528  0.25352636  0.29601188    -0.17800
C1251       C  0.43654052  0.83574317  0.31500581    -0.16900
C1252       C  0.41105768  0.82804049  0.30675498     0.07100
C1253       C  0.38026504  0.82122346  0.29774513     0.09000
C1254       C  0.35383774  0.81697624  0.28993595    -0.17800
C1255       C  0.43866932  0.70872413  0.20384736    -0.16900
C1256       C  0.41660016  0.72487190  0.20699813     0.07100
C1257       C  0.39107350  0.74442021  0.20632333     0.09000
C1258       C  0.36849735  0.75998803  0.20421481    -0.17800
C1259       C  0.22293411  0.75392933  0.35500380    -0.16900
C1260       C  0.21363669  0.74254508  0.37850979     0.07100
C1261       C  0.19991023  0.73042333  0.40543492     0.09000
C1262       C  0.18701429  0.72125746  0.42823612    -0.17800
C1263       C  0.28362165  0.84282785  0.37525966    -0.16900
C1264       C  0.29459690  0.83998318  0.40027223     0.07100
C1265       C  0.30671075  0.83804063  0.42996955     0.09000
C1266       C  0.31698655  0.83961701  0.45539436    -0.17800
C1267       C  0.13262917  0.84507709  0.26600468    -0.16900
C1268       C  0.10614670  0.85205793  0.27190517     0.07100
C1269       C  0.07518041  0.85926599  0.28067747     0.09000
C1270       C  0.04931617  0.86550248  0.28951210    -0.17800
C1271       C  0.04703676  0.74767838  0.15748023    -0.16900
C1272       C  0.06980025  0.75313389  0.17168668     0.07100
C1273       C  0.09543399  0.75621237  0.19060421     0.09000
C1274       C  0.11775925  0.75682647  0.20645122    -0.17800
C1275       C  0.16243875  0.74539037  0.06931592    -0.16900
C1276       C  0.17135657  0.75837096  0.09216312     0.07100
C1277       C  0.18335980  0.77208686  0.11913471     0.09000
C1278       C  0.19476665  0.78133243  0.14264377    -0.17800
C1279       C  0.28360237  0.84167733  0.12173742    -0.16900
C1280       C  0.28065342  0.85273084  0.09676748     0.07100
C1281       C  0.27865063  0.86507102  0.06716104     0.09000
C1282       C  0.28027171  0.87561884  0.04184851    -0.17800
C1283       C  0.37668299  0.04673150  0.10638750    -0.11700
C1284       C  0.35373216  0.04827463  0.12212050    -0.13300
C1285       C  0.27570032  0.10806632  0.17603421    -0.16900
C1286       C  0.26681000  0.13391729  0.18224973     0.07100
C1287       C  0.25795661  0.16484175  0.18954029     0.09000
C1288       C  0.25196835  0.19127700  0.19663850    -0.17800
C1289       C  0.27661610  0.99515660  0.18180008    -0.16900
C1290       C  0.26914489  0.96959402  0.19004191     0.07100
C1291       C  0.26257938  0.93874203  0.19907829     0.09000
C1292       C  0.25845348  0.91230045  0.20693173    -0.17800
C1293       C  0.09269647  0.04723700  0.37185092    -0.11700
C1294       C  0.08362362  0.04516507  0.39774027    -0.13300
C1295       C  0.14156351  0.10622329  0.29361577    -0.16900
C1296       C  0.15592746  0.12893708  0.28832091     0.07100
C1297       C  0.17525051  0.15429688  0.28531220     0.09000
C1298       C  0.19145492  0.17638211  0.28472563    -0.17800
C1299       C  0.15035490  0.99750725  0.29318015    -0.16900
C1300       C  0.16661306  0.97552429  0.28991412     0.07100
C1301       C  0.18625722  0.95005171  0.29048171     0.09000
C1302       C  0.20186216  0.92748952  0.29258201    -0.17800
C1303       C  0.27382467  0.39866379  0.76059385    -0.16900
C1304       C  0.28521390  0.42210246  0.77005859     0.07100
C1305       C  0.29708695  0.44902828  0.78398995     0.09000
C1306       C  0.30587150  0.47187911  0.79706594    -0.17800
C1307       C  0.18731751  0.49963386  0.66588613    -0.16900
C1308       C  0.18898348  0.47436450  0.67655110     0.07100
C1309       C  0.18718940  0.44479388  0.68903522     0.09000
C1310       C  0.18448483  0.41981356  0.70014934    -0.17800
C1311       C  0.33581468  0.27533585  0.69683106    -0.16900
C1312       C  0.36232850  0.26935065  0.69006120     0.07100
C1313       C  0.39329342  0.26042606  0.68306112     0.09000
C1314       C  0.41912700  0.25145034  0.67691078    -0.17800
C1315       C  0.35061866  0.33506674  0.78454566    -0.16900
C1316       C  0.37299829  0.35084894  0.78516212     0.07100
C1317       C  0.39872120  0.36961858  0.78846218     0.09000
C1318       C  0.42149594  0.38371129  0.79417981    -0.17800
C1319       C  0.24553761  0.18645208  0.78801036    -0.16900
C1320       C  0.25489214  0.16298316  0.79945007     0.07100
C1321       C  0.26867744  0.13606058  0.81155020     0.09000
C1322       C  0.28161394  0.11323048  0.82061902    -0.17800
C1323       C  0.15156470  0.08587676  0.70190493    -0.16900
C1324       C  0.16178450  0.11133039  0.70362103     0.07100
C1325       C  0.17376245  0.14110733  0.70179471     0.09000
C1326       C  0.18466889  0.16616666  0.69897450    -0.17800
C1327       C  0.11464928  0.25125968  0.72459769    -0.16900
C1328       C  0.08826542  0.24330496  0.72033503     0.07100
C1329       C  0.05750046  0.23416902  0.71354364     0.09000
C1330       C  0.03200897  0.22589619  0.70588456    -0.17800
C1331       C  0.02957359  0.33750618  0.83260867    -0.16900
C1332       C  0.05160943  0.33453912  0.81639731     0.07100
C1333       C  0.07717673  0.33533269  0.79693078     0.09000
C1334       C  0.09984224  0.33742174  0.78150678    -0.17800
C1335       C  0.35794252  0.15169682  0.99400136    -0.11700
C1336       C  0.38378568  0.14242912  0.99594544    -0.13300
C1337       C  0.27978604  0.20980330  0.04413645    -0.16900
C1338       C  0.27662642  0.22591302  0.06624602     0.07100
C1339       C  0.27720649  0.24527992  0.09193638     0.09000
C1340       C  0.27919729  0.26067139  0.11465854    -0.17800
C1341       C  0.27910080  0.20017292  0.93542388    -0.16900
C1342       C  0.27366255  0.21421312  0.91254899     0.07100
C1343       C  0.27066286  0.23324303  0.88697167     0.09000
C1344       C  0.27016030  0.24935396  0.86482210    -0.17800
C1345       C  0.09272858  0.43531716  0.99531542    -0.11700
C1346       C  0.10867124  0.41249288  0.99370115    -0.13300
C1347       C  0.19324776  0.31701149  0.12947399    -0.16900
C1348       C  0.18550399  0.32110482  0.10300777     0.07100
C1349       C  0.17655973  0.32769147  0.07215100     0.09000
C1350       C  0.16838879  0.33524430  0.04660459    -0.17800
C1351       C  0.16272767  0.33454358  0.93376719    -0.16900
C1352       C  0.16875117  0.32542021  0.90795971     0.07100
C1353       C  0.17568146  0.31623004  0.87706180     0.09000
C1354       C  0.18242958  0.31003726  0.85059418    -0.17800
C1355       C  0.50038155  0.44834554  0.11011256    -0.11700
C1356       C  0.50156202  0.43546368  0.13431575    -0.13300
C1357       C  0.62741545  0.33935461  0.23286952    -0.16900
C1358       C  0.60310600  0.35165084  0.22862318     0.07100
C1359       C  0.57498339  0.36581488  0.22162649     0.09000
C1360       C  0.55130142  0.37717167  0.21333554    -0.17800
C1361       C  0.44107985  0.37636734  0.20345373    -0.16900
C1362       C  0.41573895  0.36585773  0.20509015     0.07100
C1363       C  0.38613458  0.35347050  0.20307861     0.09000
C1364       C  0.36119039  0.34233170  0.20010141    -0.17800
C1365       C  0.52437843  0.23379151  0.31710991    -0.16900
C1366       C  0.55002800  0.23935029  0.30843506     0.07100
C1367       C  0.58044625  0.24336201  0.29800277     0.09000
C1368       C  0.60622862  0.24530119  0.28815720    -0.17800
C1369       C  0.46643074  0.13626294  0.38643599    -0.11700
C1370       C  0.46431237  0.15964066  0.37180601    -0.13300
C1371       C  0.41367861  0.24538320  0.32099053    -0.16900
C1372       C  0.39087361  0.25841788  0.31201832     0.07100
C1373       C  0.36391392  0.27218178  0.30000351     0.09000
C1374       C  0.34039307  0.28144230  0.28861092    -0.17800
C1375       C  0.37661870  0.54645106  0.10676485    -0.11700
C1376       C  0.36088300  0.54793918  0.12972038    -0.13300
C1377       C  0.30152428  0.49505119  0.20728876    -0.16900
C1378       C  0.29317716  0.46954144  0.21482350     0.07100
C1379       C  0.28393186  0.43874745  0.22137223     0.09000
C1380       C  0.27590345  0.41234575  0.22542519    -0.17800
C1381       C  0.30704803  0.60796222  0.20763484    -0.16900
C1382       C  0.30078216  0.63381864  0.21648159     0.07100
C1383       C  0.29344288  0.66473286  0.22534428     0.09000
C1384       C  0.28633111  0.69116121  0.23135529    -0.17800
C1385       C  0.18973017  0.42702678  0.28197028    -0.16900
C1386       C  0.19185289  0.44963341  0.29752308     0.07100
C1387       C  0.19254849  0.47526596  0.31697057     0.09000
C1388       C  0.18939253  0.49742971  0.33301265    -0.17800
C1389       C  0.11068087  0.54784959  0.39005069    -0.11700
C1390       C  0.08479656  0.54586502  0.39919368    -0.13300
C1391       C  0.19814028  0.67675062  0.29187015    -0.16900
C1392       C  0.19763579  0.65457534  0.30794811     0.07100
C1393       C  0.19476185  0.62905160  0.32707225     0.09000
C1394       C  0.18948004  0.60626396  0.34132243    -0.17800
C1395       C  0.09163369  0.43569623  0.49504159    -0.11700
C1396       C  0.11457657  0.41992063  0.49351097    -0.13300
C1397       C  0.19233424  0.36529470  0.43388392    -0.16900
C1398       C  0.20126583  0.35899355  0.40806855     0.07100
C1399       C  0.21024863  0.35172781  0.37717476     0.09000
C1400       C  0.21637186  0.34471924  0.35075005    -0.17800
C1401       C  0.20991644  0.33486491  0.62953726    -0.16900
C1402       C  0.20577684  0.34293061  0.60316479     0.07100
C1403       C  0.19921967  0.35215165  0.57236488     0.09000
C1404       C  0.19175069  0.36042778  0.54681537    -0.17800
C1405       C  0.32610843  0.24766698  0.43569848    -0.16900
C1406       C  0.31185192  0.25305645  0.41295959     0.07100
C1407       C  0.29275879  0.25611803  0.38746219     0.09000
C1408       C  0.27674692  0.25669374  0.36525918    -0.17800
C1409       C  0.37511366  0.16927478  0.49447596    -0.11700
C1410       C  0.38446253  0.14346446  0.49653730    -0.13300
C1411       C  0.26675212  0.24902914  0.61442794    -0.16900
C1412       C  0.28242706  0.25125114  0.59193874     0.07100
C1413       C  0.30206637  0.25184102  0.56647973     0.09000
C1414       C  0.31820168  0.24845244  0.54443748    -0.17800
loop_ 
_geom_bond_atom_site_label_1 
_geom_bond_atom_site_label_2 
_geom_bond_distance 
_geom_bond_site_symmetry_2 
_ccdc_geom_bond_type 
C1            N2   1.354       .  A
C1            N6   1.353       .  A
C1         C1414   1.424       .  S
N2            C3   1.353       .  A
C3            N4   1.356       .  A
C3         C1409   1.428       .  S
N4            C5   1.357       .  A
C5            N6   1.354       .  A
C5         C1405   1.425       .  S
C7            N8   1.369       .  A
C7           N12   1.363       .  A
C7         C1397   1.463       .  S
N8            C9   1.369       .  A
C9           N10   1.360       .  A
C9         C1404   1.461       .  S
N10          C11   1.359       .  A
C11          N12   1.361       .  A
C11        C1396   1.452       .  S
C13          N14   1.353       .  A
C13          N18   1.353       .  A
C13        C1388   1.425       .  S
N14          C15   1.355       .  A
C15          N16   1.357       .  A
C15        C1394   1.425       .  S
N16          C17   1.356       .  A
C17          N18   1.353       .  A
C17        C1389   1.428       .  S
C19          N20   1.360       .  A
C19          N24   1.369       .  A
C19        C1377   1.460       .  S
N20          C21   1.359       .  A
C21          N22   1.361       .  A
C21        C1376   1.451       .  S
N22          C23   1.362       .  A
C23          N24   1.369       .  A
C23        C1381   1.462       .  S
C25          N26   1.359       .  A
C25          N30   1.355       .  A
C25        C1365   1.439       .  S
N26          C27   1.361       .  A
C27          N28   1.364       .  A
C27        C1371   1.448       .  S
N28          C29   1.363       .  A
C29          N30   1.355       .  A
C29        C1370   1.444       .  S
C31          N32   1.353       .  A
C31          N36   1.357       .  A
C31        C1361   1.430       .  S
N32          C33   1.352       .  A
C33          N34   1.355       .  A
C33        C1356   1.429       .  S
N34          C35   1.358       .  A
C35          N36   1.359       .  A
C35        C1360   1.432       .  S
C37          N38   1.363       .  A
C37          N42   1.369       .  A
C37        C1351   1.462       .  S
N38          C39   1.361       .  A
C39          N40   1.359   1_556  A
C39        C1346   1.452       .  S
N40          C41   1.360       .  A
C41          N42   1.368   1_554  A
C41        C1350   1.460       .  S
C43          N44   1.355       .  A
C43          N48   1.357       .  A
C43        C1341   1.425       .  S
N44          C45   1.353   1_556  A
C45          N46   1.353       .  A
C45        C1337   1.425       .  S
N46          C47   1.353   1_554  A
C47          N48   1.356       .  A
C47        C1335   1.428       .  S
O49          C76   1.268       .  A
O49         Mn75   2.087       .  S
C50        C1411   1.425       .  S
C50          O83   1.268       .  A
C50          O80   1.266       .  A
O51         Mn58   2.162       .  S
O51         Mn69   2.138       .  S
O51         Mn73   2.163       .  S
O51         Mn75   2.147       .  S
O52          C62   1.271       .  A
O52         Mn86   2.094       .  S
O53          C76   1.266       .  A
O53         Mn69   2.075       .  S
O54          C81   1.257       .  A
O54         Mn73   2.130       .  S
O55         Mn86   1.977       .  S
O55         Mn75   1.971       .  S
O55          C71   1.225       .  S
C56        C1319   1.447       .  S
C56          O59   1.256       .  A
C56          O82   1.221       .  S
O57         Mn77   2.140       .  S
O57         Mn58   2.169       .  S
O57         Mn91   2.139       .  S
O57         Mn73   2.169       .  S
Mn58         O87   2.129       .  S
Mn58         O63   2.114       .  S
Mn58         O90   2.121       .  S
Mn58         O64   2.162       .  S
O59         Mn73   2.115       .  S
O60          C62   1.268       .  A
O60         Mn67   2.081       .  S
C61        C1311   1.461       .  S
C61          O87   1.256       .  A
C61          O74   1.220       .  S
C62        C1326   1.430       .  S
O63          C88   1.256       .  A
O64         Mn67   2.139       .  S
O64         Mn86   2.146       .  S
O64         Mn73   2.162       .  S
O65         Mn69   1.964       .  S
O65         Mn91   1.960       .  S
O65          C88   1.220       .  S
C66        C1344   1.425       .  S
C66          O92   1.265       .  A
C66          O68   1.269       .  A
Mn67         O80   2.074       .  S
Mn67         O82   1.964       .  S
Mn67         O74   1.968       .  S
O68         Mn91   2.091       .  S
Mn69         O85   2.083       .  S
Mn69         O79   1.969       .  S
O70          C72   1.270       .  A
O70         Mn75   2.094       .  S
C71        C1327   1.460       .  S
C71          O89   1.258       .  A
C72        C1310   1.430       .  S
C72          O85   1.268       .  A
Mn73         O89   2.120       .  S
O74         Mn77   1.955       .  S
Mn75         O93   1.976       .  S
C76        C1334   1.424       .  S
Mn77         O84   2.088       .  S
Mn77         O92   2.071       .  S
Mn77         O82   1.960       .  S
C78        C1315   1.424       .  S
C78          O84   1.268       .  A
C78          O94   1.265       .  A
O79         Mn91   1.956       .  S
O79          C81   1.219       .  S
C81        C1354   1.460       .  S
O83         Mn86   2.089       .  S
Mn86         O93   1.971       .  S
C88        C1303   1.446       .  S
O90          C95   1.258       .  A
Mn91         O94   2.072       .  S
O93          C95   1.225       .  S
C95        C1401   1.461       .  S
C96          N97   1.353       .  A
C96         N101   1.353       .  A
C96        C1299   1.424   1_545  S
N97          C98   1.353       .  A
C98          N99   1.356       .  A
C98        C1293   1.427       .  S
N99         C100   1.357       .  A
C100        N101   1.354       .  A
C100       C1295   1.425       .  S
C102        N103   1.360       .  A
C102        N107   1.369       .  A
C102       C1289   1.460   1_545  S
N103        C104   1.359       .  A
C104        N105   1.361       .  A
C104       C1284   1.451       .  S
N105        C106   1.362       .  A
C106        N107   1.369       .  A
C106       C1285   1.462       .  S
O108        C135   1.268       .  A
O108       Mn134   2.082       .  S
C109       C1391   1.425       .  S
C109        O142   1.269       .  A
C109        O139   1.265       .  A
O110       Mn117   2.163       .  S
O110       Mn128   2.146       .  S
O110       Mn132   2.162       .  S
O110       Mn134   2.139       .  S
O111        C121   1.265       .  A
O111       Mn145   2.072       .  S
O112        C135   1.271       .  A
O112       Mn128   2.094       .  S
O113        C140   1.257       .  A
O113       Mn132   2.120       .  S
O114       Mn145   1.961       .  S
O114       Mn134   1.964       .  S
O114        C130   1.221       .  S
C115       C1267   1.461       .  S
C115        O118   1.256       .  A
C115        O141   1.220       .  S
O116       Mn136   2.139       .  S
O116       Mn117   2.162       .  S
O116       Mn150   2.146       .  S
O116       Mn132   2.162       .  S
Mn117       O146   2.115       .  S
Mn117       O122   2.120       .  S
Mn117       O149   2.129       .  S
Mn117       O123   2.168       .  S
O118       Mn132   2.128       .  S
O119        C121   1.268       .  A
O119       Mn126   2.089       .  S
C120       C1259   1.447       .  S
C120        O146   1.256       .  A
C120        O133   1.221       .  S
C121       C1274   1.424       .  S
O122        C147   1.258       .  A
O123       Mn126   2.140       .  S
O123       Mn145   2.140       .  S
O123       Mn132   2.169       .  S
O124       Mn128   1.971       .  S
O124       Mn150   1.977       .  S
O124        C147   1.225       .  S
C125       C1302   1.425       .  S
C125        O151   1.266       .  A
C125        O127   1.268       .  A
Mn126       O139   2.071       .  S
Mn126       O141   1.956       .  S
Mn126       O133   1.960       .  S
O127       Mn150   2.089       .  S
Mn128       O144   2.088       .  S
Mn128       O138   1.977       .  S
O129        C131   1.266       .  A
O129       Mn134   2.075       .  S
C130       C1278   1.446       .  S
C130        O148   1.256       .  A
C131       C1258   1.425       .  S
C131        O144   1.268       .  A
Mn132       O148   2.113       .  S
O133       Mn136   1.964       .  S
Mn134       O152   1.969       .  S
C135       C1279   1.430       .  S
Mn136       O143   2.082       .  S
Mn136       O151   2.075       .  S
Mn136       O141   1.969       .  S
C137       C1263   1.430       .  S
C137        O143   1.268       .  A
C137        O153   1.270       .  A
O138       Mn150   1.971       .  S
O138        C140   1.225       .  S
C140       C1292   1.460       .  S
O142       Mn145   2.090       .  S
Mn145       O152   1.957       .  S
C147       C1254   1.460       .  S
O149        C154   1.256       .  A
Mn150       O153   2.094       .  S
O152        C154   1.220       .  S
C154       C1384   1.461       .  S
C155        N156   1.355       .  A
C155        N160   1.359       .  A
C155       C1247   1.439       .  S
N156        C157   1.355   1_655  A
C157        N158   1.362       .  A
C157       C1242   1.445       .  S
N158        C159   1.364       .  A
C159        N160   1.361   1_455  A
C159       C1243   1.448       .  S
C161        N162   1.359       .  A
C161        N166   1.358       .  A
C161       C1240   1.432       .  S
N162        C163   1.357       .  A
C163        N164   1.353       .  A
C163       C1233   1.429   1_655  S
N164        C165   1.352       .  A
C165        N166   1.356       .  A
C165       C1232   1.429       .  S
O167        C194   1.272       .  A
O167       Mn193   2.103       .  S
C168       C1368   1.438       .  S
C168        O201   1.272       .  A
C168        O198   1.269       .  A
O169       Mn176   2.153       .  S
O169       Mn187   2.138       .  S
O169       Mn191   2.155       .  S
O169       Mn193   2.139       .  S
O170        C180   1.269       .  A
O170       Mn204   2.089       .  S
O171        C194   1.269       .  A
O171       Mn187   2.091       .  S
O172        C199   1.247       .  A
O172       Mn191   2.078       .  S
O173       Mn204   1.973       .  S
O173       Mn193   1.967       .  S
O173        C189   1.221       .  S
C174       C1230   1.433       .  S
C174        O177   1.248       .  A
C174        O200   1.221       .  S
O175       Mn195   2.139       .  S
O175       Mn176   2.154       .  S
O175       Mn209   2.139       .  S
O175       Mn191   2.153       .  S
Mn176       O205   2.078       .  S
Mn176       O181   2.078       .  S
Mn176       O208   2.079       .  S
Mn176       O182   2.154       .  S
O177       Mn191   2.079       .  S
O178        C180   1.272       .  A
O178       Mn185   2.103       .  S
C179       C1357   1.432       .  S
C179        O205   1.247       .  A
C179        O192   1.221       .  S
C180       C1215   1.438       .  S
O181        C206   1.247       .  A
O182       Mn185   2.138       .  S
O182       Mn204   2.139       .  S
O182       Mn191   2.153       .  S
O183       Mn187   1.969       .  S
O183       Mn209   1.973       .  S
O183        C206   1.221       .  S
C184       C1223   1.439       .  S
C184        O210   1.270       .  A
C184        O186   1.272       .  A
Mn185       O198   2.090       .  S
Mn185       O200   1.968       .  S
Mn185       O192   1.974       .  S
O186       Mn209   2.104       .  S
Mn187       O203   2.103       .  S
Mn187       O197   1.972       .  S
O188        C190   1.269       .  A
O188       Mn193   2.090       .  S
C189       C1222   1.431       .  S
C189        O207   1.247       .  A
C190       C1207   1.438       .  S
C190        O203   1.272       .  A
Mn191       O207   2.077       .  S
O192       Mn195   1.968       .  S
Mn193       O211   1.972       .  S
C194       C1250   1.439       .  S
Mn195       O202   2.105       .  S
Mn195       O210   2.091       .  S
Mn195       O200   1.973       .  S
C196       C1202   1.439       .  S
C196        O202   1.272       .  A
C196        O212   1.269       .  A
O197       Mn209   1.967       .  S
O197        C199   1.220       .  S
C199       C1237   1.431       .  S
O201       Mn204   2.102       .  S
Mn204       O211   1.966       .  S
C206       C1203   1.433       .  S
O208        C213   1.247       .  A
Mn209       O212   2.091       .  S
O211        C213   1.220       .  S
C213       C1214   1.431       .  S
C214        N215   1.358   1_556  A
C214        N219   1.353       .  A
C214       C1198   1.430       .  S
N215        C216   1.359       .  A
C216        N217   1.358       .  A
C216       C1227   1.433       .  S
N217        C218   1.356       .  A
C218        N219   1.352   1_554  A
C218       C1194   1.429       .  S
C220        N221   1.355       .  A
C220        N225   1.359   1_554  A
C220       C1226   1.440       .  S
N221        C222   1.356   1_554  A
C222        N223   1.363       .  A
C222       C1187   1.445       .  S
N223        C224   1.364       .  A
C224        N225   1.361       .  A
C224       C1189   1.449       .  S
C226        N227   1.363       .  A
C226        N231   1.369       .  A
C226       C1183   1.463       .  S
N227        C228   1.362       .  A
C228        N229   1.359   1_655  A
C228       C1182   1.452       .  S
N229        C230   1.360       .  A
C230        N231   1.368   1_455  A
C230       C1330   1.460       .  S
C232        N233   1.353       .  A
C232        N237   1.353   1_455  A
C232       C1331   1.423       .  S
N233        C234   1.353   1_455  A
C234        N235   1.356       .  A
C234       C1175   1.428       .  S
N235        C236   1.357       .  A
C236        N237   1.354       .  A
C236       C1177   1.425       .  S
O238        C265   1.265       .  A
O238       Mn264   2.071       .  S
C239       C1151   1.424       .  S
C239        O272   1.266       .  A
C239        O269   1.268       .  A
O240       Mn247   2.168       .  S
O240       Mn258   2.140       .  S
O240       Mn262   2.168       .  S
O240       Mn264   2.139       .  S
O241        C251   1.268       .  A
O241       Mn275   2.082       .  S
O242        C265   1.269       .  A
O242       Mn258   2.089       .  S
O243        C270   1.256       .  A
O243       Mn262   2.130       .  S
O244       Mn275   1.963       .  S
O244       Mn264   1.960       .  S
O244        C260   1.220       .  S
C245       C1171   1.460       .  S
C245        O248   1.258       .  A
C245        O271   1.225       .  S
O246       Mn266   2.147       .  S
O246       Mn247   2.161       .  S
O246       Mn280   2.138       .  S
O246       Mn262   2.163       .  S
Mn247       O276   2.119       .  S
Mn247       O252   2.114       .  S
Mn247       O279   2.128       .  S
Mn247       O253   2.163       .  S
O248       Mn262   2.120       .  S
O249        C251   1.271       .  A
O249       Mn256   2.095       .  S
C250       C1155   1.460       .  S
C250        O276   1.257       .  A
C250        O263   1.225       .  S
C251       C1195   1.430       .  S
O252        C277   1.256       .  A
O253       Mn256   2.146       .  S
O253       Mn275   2.139       .  S
O253       Mn262   2.162       .  S
O254       Mn258   1.960       .  S
O254       Mn280   1.964       .  S
O254        C277   1.220       .  S
C255       C1167   1.423       .  S
C255        O281   1.268       .  A
C255        O257   1.266       .  A
Mn256       O269   2.086       .  S
Mn256       O271   1.975       .  S
Mn256       O263   1.971       .  S
O257       Mn280   2.074       .  S
Mn258       O274   2.071       .  S
Mn258       O268   1.956       .  S
O259        C261   1.268       .  A
O259       Mn264   2.089       .  S
C260       C1192   1.447       .  S
C260        O278   1.257       .  A
C261       C1146   1.424       .  S
C261        O274   1.265       .  A
Mn262       O278   2.115       .  S
O263       Mn266   1.975       .  S
Mn264       O282   1.956       .  S
C265       C1180   1.424       .  S
Mn266       O273   2.093       .  S
Mn266       O281   2.086       .  S
Mn266       O271   1.971       .  S
C267       C1159   1.429       .  S
C267        O273   1.270       .  A
C267        O283   1.268       .  A
O268       Mn280   1.969       .  S
O268        C270   1.219       .  S
C270       C1186   1.461       .  S
O272       Mn275   2.073       .  S
Mn275       O282   1.969       .  S
C277       C1163   1.446       .  S
O279        C284   1.256       .  A
Mn280       O283   2.081       .  S
O282        C284   1.220       .  S
C284       C1150   1.461       .  S
C285        N286   1.359   1_556  A
C285        N290   1.355       .  A
C285       C1142   1.438       .  S
N286        C287   1.361       .  A
C287        N288   1.364       .  A
C287       C1275   1.448       .  S
N288        C289   1.362       .  A
C289        N290   1.355   1_554  A
C289       C1138   1.443       .  S
C291        N292   1.353       .  A
C291        N296   1.358   1_554  A
C291       C1282   1.430       .  S
N292        C293   1.352   1_554  A
C293        N294   1.355       .  A
C293       C1131   1.429       .  S
N294        C295   1.358       .  A
C295        N296   1.359       .  A
C295       C1136   1.433       .  S
C297        N298   1.358       .  A
C297        N302   1.359       .  A
C297       C1130   1.433   1_545  S
N298        C299   1.356       .  A
C299        N300   1.352       .  A
C299       C1125   1.429       .  S
N300        C301   1.353       .  A
C301        N302   1.357       .  A
C301       C1323   1.430       .  S
C303        N304   1.355       .  A
C303        N308   1.359       .  A
C303       C1124   1.439       .  S
N304        C305   1.355       .  A
C305        N306   1.363       .  A
C305       C1119   1.445       .  S
N306        C307   1.364       .  A
C307        N308   1.361       .  A
C307       C1322   1.449       .  S
O309        C336   1.269       .  A
O309       Mn335   2.090       .  S
C310       C1139   1.437       .  S
C310        O343   1.269       .  A
C310        O340   1.272       .  A
O311       Mn318   2.154       .  S
O311       Mn329   2.138       .  S
O311       Mn333   2.153       .  S
O311       Mn335   2.139       .  S
O312        C322   1.272       .  A
O312       Mn346   2.102       .  S
O313        C336   1.272       .  A
O313       Mn329   2.104       .  S
O314        C341   1.247       .  A
O314       Mn333   2.078       .  S
O315       Mn346   1.968       .  S
O315       Mn335   1.973       .  S
O315        C331   1.221       .  S
C316       C1087   1.432       .  S
C316        O319   1.247       .  A
C316        O342   1.221       .  S
O317       Mn337   2.139       .  S
O317       Mn318   2.153       .  S
O317       Mn351   2.138       .  S
O317       Mn333   2.154       .  S
Mn318       O347   2.079       .  S
Mn318       O323   2.078       .  S
Mn318       O350   2.078       .  S
Mn318       O324   2.153       .  S
O319       Mn333   2.077       .  S
O320        C322   1.269       .  A
O320       Mn327   2.090       .  S
C321       C1114   1.432       .  S
C321        O347   1.248       .  A
C321        O334   1.221       .  S
C322       C1091   1.438       .  S
O323        C348   1.247       .  A
O324       Mn327   2.139       .  S
O324       Mn346   2.138       .  S
O324       Mn333   2.153       .  S
O325       Mn329   1.974       .  S
O325       Mn351   1.968       .  S
O325        C348   1.221       .  S
C326       C1107   1.438       .  S
C326        O352   1.272       .  A
C326        O328   1.269       .  A
Mn327       O340   2.102       .  S
Mn327       O342   1.973       .  S
Mn327       O334   1.968       .  S
O328       Mn351   2.090       .  S
Mn329       O345   2.090       .  S
Mn329       O339   1.968       .  S
O330        C332   1.272       .  A
O330       Mn335   2.103       .  S
C331       C1095   1.433       .  S
C331        O349   1.248       .  A
C332       C1121   1.439       .  S
C332        O345   1.269       .  A
Mn333       O349   2.079       .  S
O334       Mn337   1.972       .  S
Mn335       O353   1.967       .  S
C336       C1102   1.439       .  S
Mn337       O344   2.090       .  S
Mn337       O352   2.103       .  S
Mn337       O342   1.967       .  S
C338       C1115   1.438       .  S
C338        O344   1.269       .  A
C338        O354   1.272       .  A
O339       Mn351   1.972       .  S
O339        C341   1.221       .  S
C341       C1103   1.432       .  S
O343       Mn346   2.089       .  S
Mn346       O353   1.973       .  S
C348       C1127   1.432       .  S
O350        C355   1.247       .  A
Mn351       O354   2.103       .  S
O353        C355   1.221       .  S
C355       C1133   1.432       .  S
C356        N357   1.354       .  A
C356        N361   1.353       .  A
C356       C1083   1.424       .  S
N357        C358   1.353       .  A
C358        N359   1.356   1_655  A
C358       C1081   1.428       .  S
N359        C360   1.356       .  A
C360        N361   1.354   1_455  A
C360       C1271   1.425       .  S
C362        N363   1.369       .  A
C362        N367   1.360       .  A
C362       C1077   1.461       .  S
N363        C364   1.369   1_655  A
C364        N365   1.362       .  A
C364       C1270   1.462       .  S
N365        C366   1.361   1_455  A
C366        N367   1.359       .  A
C366       C1076   1.451       .  S
C368        N369   1.357       .  A
C368        N373   1.353       .  A
C368       C1071   1.429   1_545  S
N369        C370   1.358       .  A
C370        N371   1.358       .  A
C370       C1219   1.432       .  S
N371        C372   1.355       .  A
C372        N373   1.352       .  A
C372       C1069   1.429       .  S
C374        N375   1.363       .  A
C374        N379   1.361   1_565  A
C374       C1068   1.447       .  S
N375        C376   1.362   1_565  A
C376        N377   1.355       .  A
C376       C1063   1.443       .  S
N377        C378   1.355       .  A
C378        N379   1.359       .  A
C378       C1218   1.438       .  S
O380        C407   1.265       .  A
O380       Mn406   2.070       .  S
C381       C1086   1.425       .  S
C381        O414   1.266       .  A
C381        O411   1.268       .  A
O382       Mn389   2.168       .  S
O382       Mn400   2.139       .  S
O382       Mn404   2.169       .  S
O382       Mn406   2.140       .  S
O383        C393   1.267       .  A
O383       Mn417   2.080       .  S
O384        C407   1.269       .  A
O384       Mn400   2.090       .  S
O385        C412   1.256       .  A
O385       Mn404   2.129       .  S
O386       Mn417   1.964       .  S
O386       Mn406   1.959       .  S
O386        C402   1.221       .  S
C387       C1051   1.461       .  S
C387        O390   1.258       .  A
C387        O413   1.225       .  S
O388       Mn408   2.147       .  S
O388       Mn389   2.161       .  S
O388       Mn422   2.139       .  S
O388       Mn404   2.162       .  S
Mn389       O418   2.120       .  S
Mn389       O394   2.113       .  S
Mn389       O421   2.127       .  S
Mn389       O395   2.162       .  S
O390       Mn404   2.120       .  S
O391        C393   1.271       .  A
O391       Mn398   2.094       .  S
C392       C1080   1.461       .  S
C392        O418   1.257       .  A
C392        O405   1.225       .  S
C393       C1031   1.429       .  S
O394        C419   1.256       .  A
O395       Mn398   2.146       .  S
O395       Mn417   2.139       .  S
O395       Mn404   2.162       .  S
O396       Mn400   1.960       .  S
O396       Mn422   1.964       .  S
O396        C419   1.220       .  S
C397       C1050   1.424       .  S
C397        O423   1.268       .  A
C397        O399   1.266       .  A
Mn398       O411   2.088       .  S
Mn398       O413   1.977       .  S
Mn398       O405   1.972       .  S
O399       Mn422   2.074       .  S
Mn400       O416   2.071       .  S
Mn400       O410   1.956       .  S
O401        C403   1.268       .  A
O401       Mn406   2.087       .  S
C402       C1038   1.447       .  S
C402        O420   1.257       .  A
C403       C1058   1.423       .  S
C403        O416   1.265       .  A
Mn404       O420   2.115       .  S
O405       Mn408   1.976       .  S
Mn406       O424   1.956       .  S
C407       C1039   1.424       .  S
Mn408       O415   2.093       .  S
Mn408       O423   2.087       .  S
Mn408       O413   1.971       .  S
C409       C1074   1.429       .  S
C409        O415   1.270       .  A
C409        O425   1.268       .  A
O410       Mn422   1.969       .  S
O410        C412   1.220       .  S
C412       C1043   1.460       .  S
O414       Mn417   2.074       .  S
Mn417       O424   1.969       .  S
C419       C1065   1.446       .  S
O421        C426   1.256       .  A
Mn422       O425   2.081       .  S
O424        C426   1.220       .  S
C426       C1059   1.461       .  S
C427        N428   1.354       .  A
C427        N432   1.356       .  A
C427       C1055   1.424       .  S
N428        C429   1.353   1_554  A
C429        N430   1.354       .  A
C429       C1027   1.423       .  S
N430        C431   1.353   1_556  A
C431        N432   1.355       .  A
C431       C1025   1.427       .  S
C433        N434   1.360       .  A
C433        N438   1.369   1_556  A
C433       C1021   1.460       .  S
N434        C435   1.359   1_556  A
C435        N436   1.361       .  A
C435       C1019   1.452       .  S
N436        C437   1.363       .  A
C437        N438   1.369       .  A
C437       C1062   1.463       .  S
C439        N440   1.353       .  A
C439        N444   1.353       .  A
C439       C1170   1.423       .  S
N440        C441   1.353       .  A
C441        N442   1.356       .  A
C441       C1013   1.428       .  S
N442        C443   1.357       .  A
C443        N444   1.354       .  A
C443       C1018   1.424   1_545  S
C445        N446   1.363       .  A
C445        N450   1.369       .  A
C445       C1009   1.462   1_545  S
N446        C447   1.361       .  A
C447        N448   1.359       .  A
C447       C1007   1.451       .  S
N448        C449   1.360       .  A
C449        N450   1.368       .  A
C449       C1174   1.460       .  S
C451        N452   1.359       .  A
C451        N456   1.355       .  A
C451       C1118   1.439   1_655  S
N452        C453   1.361       .  A
C453        N454   1.364       .  A
C453       C1006   1.448       .  S
N454        C455   1.362       .  A
C455        N456   1.355       .  A
C455       C1002   1.444       .  S
C457        N458   1.353       .  A
C457        N462   1.357       .  A
C457        C997   1.429       .  S
N458        C459   1.352   1_655  A
C459        N460   1.356       .  A
C459        C995   1.429       .  S
N460        C461   1.358       .  A
C461        N462   1.359   1_455  A
C461       C1111   1.433       .  S
N463        N464   1.325       .  A
N463        N469   1.315       .  A
N463       Mn492   2.218   1_565  S
N464        C471   1.355       .  A
N465        N467   1.315       .  A
N465        N466   1.323       .  A
N465       Mn481   2.212   1_655  S
N466        C472   1.354       .  A
N467        N468   1.322       .  A
N467       Mn492   2.206   1_565  S
N468        C472   1.351       .  A
N469        N470   1.324   1_655  A
N469       Mn481   2.216   1_655  S
N470        C471   1.353   1_455  A
C471       C1075   1.452       .  S
C472       C1001   1.445       .  S
N473        N479   1.317       .  A
N473        N474   1.320       .  A
N473       Mn503   2.199       .  S
N474        C482   1.350       .  A
N475        N476   1.320       .  A
N475        N477   1.318       .  A
N475       Mn481   2.197   1_545  S
N476        C483   1.349       .  A
N477        N478   1.319       .  A
N477       Mn503   2.197       .  S
N478        C483   1.347       .  A
N479        N480   1.320       .  A
N479       Mn481   2.199   1_545  S
N480        C482   1.349       .  A
Mn481      Cl505   2.548   1_465  S
C482       C1126   1.430       .  S
C483       C1294   1.428       .  S
N484        N485   1.319       .  A
N484        N490   1.318       .  A
N484       Mn492   2.197       .  S
N485        C493   1.347       .  A
N486        N488   1.317       .  A
N486        N487   1.320       .  A
N486       Mn504   2.198       .  S
N487        C494   1.348       .  A
N488        N489   1.320       .  A
N488       Mn492   2.197       .  S
N489        C494   1.350       .  A
N490        N491   1.320       .  A
N490       Mn504   2.199       .  S
N491        C493   1.349       .  A
Mn492      Cl505   2.550       .  S
C493       C1014   1.429       .  S
C494       C1070   1.429       .  S
N495        N496   1.323       .  A
N495        N501   1.315   1_455  A
N495       Mn503   2.209       .  S
N496        C506   1.352   1_455  A
N497        N498   1.323       .  A
N497        N499   1.315       .  A
N497       Mn504   2.214       .  S
N498        C507   1.353       .  A
N499        N500   1.325   1_655  A
N499       Mn503   2.220   1_655  S
N500        C507   1.355   1_455  A
N501        N502   1.323       .  A
N501       Mn504   2.212       .  S
N502        C506   1.354       .  A
Mn503      Cl505   2.550   1_455  S
Mn504      Cl505   2.548       .  S
C506       C1241   1.445   1_655  S
C507       C1181   1.453       .  S
N508        N509   1.320       .  A
N508        N514   1.317       .  A
N508       Mn537   2.197       .  S
N509        C516   1.348       .  A
N510        N512   1.318       .  A
N510        N511   1.319   1_655  A
N510       Mn526   2.197   1_655  S
N511        C517   1.347   1_455  A
N512        N513   1.320       .  A
N512       Mn537   2.199       .  S
N513        C517   1.349       .  A
N514        N515   1.320       .  A
N514       Mn526   2.198   1_655  S
N515        C516   1.350       .  A
C516       C1231   1.429       .  S
C517       C1082   1.429       .  S
N518        N524   1.315   1_556  A
N518        N519   1.323       .  A
N518       Mn548   2.212       .  S
N519        C527   1.354   1_556  A
N520        N521   1.325       .  A
N520        N522   1.315   1_554  A
N520       Mn526   2.219       .  S
N521        C528   1.355   1_554  A
N522        N523   1.323       .  A
N522       Mn548   2.215       .  S
N523        C528   1.353       .  A
N524        N525   1.322       .  A
N524       Mn526   2.206       .  S
N525        C527   1.351       .  A
Mn526      Cl550   2.550   1_454  S
C527       C1137   1.444       .  S
C528       C1345   1.452       .  S
N529        N530   1.323       .  A
N529        N535   1.315   1_554  A
N529       Mn537   2.213       .  S
N530        C538   1.353       .  A
N531        N533   1.315   1_556  A
N531        N532   1.323       .  A
N531       Mn549   2.209       .  S
N532        C539   1.352       .  A
N533        N534   1.323       .  A
N533       Mn537   2.214       .  S
N534        C539   1.354   1_554  A
N535        N536   1.325       .  A
N535       Mn549   2.221       .  S
N536        C538   1.356   1_556  A
Mn537      Cl550   2.548   1_554  S
C538       C1020   1.452       .  S
C539       C1188   1.446       .  S
N540        N541   1.320       .  A
N540        N546   1.318   1_455  A
N540       Mn548   2.199       .  S
N541        C551   1.349   1_455  A
N542        N543   1.320       .  A
N542        N544   1.317   1_655  A
N542       Mn549   2.198       .  S
N543        C552   1.350       .  A
N544        N545   1.320       .  A
N544       Mn548   2.198       .  S
N545        C552   1.348   1_455  A
N546        N547   1.319       .  A
N546       Mn549   2.197       .  S
N547        C551   1.347       .  A
Mn548      Cl550   2.548   1_455  S
Mn549      Cl550   2.550       .  S
C551       C1176   1.429       .  S
C552        C996   1.429   1_655  S
N553        N554   1.319       .  A
N553        N559   1.318   1_556  A
N553       Mn582   2.198       .  S
N554        C561   1.347       .  A
N555        N557   1.317   1_554  A
N555        N556   1.320       .  A
N555       Mn571   2.199       .  S
N556        C562   1.349       .  A
N557        N558   1.320       .  A
N557       Mn582   2.199       .  S
N558        C562   1.350   1_556  A
N559        N560   1.320       .  A
N559       Mn571   2.197       .  S
N560        C561   1.349   1_554  A
C561       C1336   1.429       .  S
C562       C1193   1.430       .  S
N563        N569   1.315       .  A
N563        N564   1.322       .  A
N563       Mn593   2.206   1_545  S
N564        C572   1.351       .  A
N565        N566   1.323       .  A
N565        N567   1.315       .  A
N565       Mn571   2.215       .  S
N566        C573   1.353       .  A
N567        N568   1.324       .  A
N567       Mn593   2.217   1_545  S
N568        C573   1.355       .  A
N569        N570   1.323       .  A
N569       Mn571   2.211       .  S
N570        C572   1.354       .  A
Mn571      Cl595   2.549   1_554  S
C572       C1064   1.444       .  S
C573       C1283   1.451       .  S
N574        N575   1.325       .  A
N574        N580   1.315       .  A
N574       Mn582   2.220       .  S
N575        C583   1.355       .  A
N576        N578   1.315       .  A
N576        N577   1.323       .  A
N576       Mn594   2.212       .  S
N577        C584   1.354       .  A
N578        N579   1.323       .  A
N578       Mn582   2.209       .  S
N579        C584   1.352       .  A
N580        N581   1.323       .  A
N580       Mn594   2.213       .  S
N581        C583   1.353       .  A
Mn582      Cl595   2.549       .  S
C583       C1008   1.452       .  S
C584       C1120   1.445       .  S
N585        N586   1.320       .  A
N585        N591   1.317   1_554  A
N585       Mn593   2.198       .  S
N586        C596   1.350   1_554  A
N587        N588   1.320       .  A
N587        N589   1.318   1_556  A
N587       Mn594   2.197   1_565  S
N588        C597   1.349       .  A
N589        N590   1.319       .  A
N589       Mn593   2.196       .  S
N590        C597   1.347   1_554  A
N591        N592   1.320       .  A
N591       Mn594   2.198   1_565  S
N592        C596   1.349       .  A
Mn593      Cl595   2.549   1_564  S
Mn594      Cl595   2.549       .  S
C596       C1132   1.430       .  S
C597       C1026   1.428   1_556  S
O598        C625   1.268       .  A
O598       Mn624   2.086       .  S
C599       C1030   1.424       .  S
C599        O632   1.268       .  A
C599        O629   1.266       .  A
O600       Mn607   2.162       .  S
O600       Mn618   2.138       .  S
O600       Mn622   2.163       .  S
O600       Mn624   2.147       .  S
O601        C611   1.270       .  A
O601       Mn635   2.094       .  S
O602        C625   1.266       .  A
O602       Mn618   2.074       .  S
O603        C630   1.256       .  A
O603       Mn622   2.129       .  S
O604       Mn635   1.976       .  S
O604       Mn624   1.972       .  S
O604        C620   1.225       .  S
C605        C979   1.446       .  S
C605        O608   1.256       .  A
C605        O631   1.220       .  S
O606       Mn626   2.139       .  S
O606       Mn607   2.169       .  S
O606       Mn640   2.139       .  S
O606       Mn622   2.169       .  S
Mn607       O636   2.128       .  S
Mn607       O612   2.115       .  S
Mn607       O639   2.121       .  S
Mn607       O613   2.163       .  S
O608       Mn622   2.115       .  S
O609        C611   1.268       .  A
O609       Mn616   2.081       .  S
C610       C1012   1.460       .  S
C610        O636   1.256       .  A
C610        O623   1.220       .  S
C611        C986   1.430       .  S
O612        C637   1.256       .  A
O613       Mn616   2.139       .  S
O613       Mn635   2.146       .  S
O613       Mn622   2.162       .  S
O614       Mn618   1.964       .  S
O614       Mn640   1.959       .  S
O614        C637   1.220       .  S
C615        C991   1.424       .  S
C615        O641   1.265       .  A
C615        O617   1.268       .  A
Mn616       O629   2.073       .  S
Mn616       O631   1.963       .  S
Mn616       O623   1.969       .  S
O617       Mn640   2.089       .  S
Mn618       O634   2.081       .  S
Mn618       O628   1.969       .  S
O619        C621   1.270       .  A
O619       Mn624   2.093       .  S
C620        C971   1.460       .  S
C620        O638   1.258       .  A
C621       C1000   1.429       .  S
C621        O634   1.268       .  A
Mn622       O638   2.120       .  S
O623       Mn626   1.956       .  S
Mn624       O642   1.974       .  S
C625        C975   1.424       .  S
Mn626       O633   2.088       .  S
Mn626       O641   2.072       .  S
Mn626       O631   1.959       .  S
C627       C1015   1.424       .  S
C627        O633   1.268       .  A
C627        O643   1.265       .  A
O628       Mn640   1.956       .  S
O628        C630   1.220       .  S
C630        C987   1.460       .  S
O632       Mn635   2.087       .  S
Mn635       O642   1.971       .  S
C637       C1003   1.446       .  S
O639        C644   1.258       .  A
Mn640       O643   2.072       .  S
O642        C644   1.224       .  S
C644       C1024   1.460       .  S
C645        N646   1.359       .  A
C645        N650   1.358       .  A
C645       C1106   1.432       .  S
N646        C647   1.357       .  A
C647        N648   1.353       .  A
C647       C1266   1.430       .  S
N648        C649   1.352       .  A
C649        N650   1.356       .  A
C649        C969   1.429       .  S
C651        N652   1.359       .  A
C651        N656   1.355       .  A
C651       C1110   1.439       .  S
N652        C653   1.361       .  A
C653        N654   1.364       .  A
C653       C1262   1.448       .  S
N654        C655   1.362       .  A
C655        N656   1.355       .  A
C655        C967   1.444       .  S
C657        N658   1.355       .  A
C657        N662   1.359       .  A
C657       C1210   1.439       .  S
N658        C659   1.355       .  A
C659        N660   1.362       .  A
C659        C965   1.443       .  S
N660        C661   1.363       .  A
C661        N662   1.361       .  A
C661       C1166   1.447       .  S
C663        N664   1.357       .  A
C663        N668   1.353       .  A
C663       C1162   1.429       .  S
N664        C665   1.359       .  A
C665        N666   1.358       .  A
C665       C1211   1.432       .  S
N666        C667   1.355       .  A
C667        N668   1.352       .  A
C667        C964   1.428       .  S
C669        N670   1.353       .  A
C669        N674   1.353       .  A
C669       C1047   1.423       .  S
N670        C671   1.353       .  A
C671        N672   1.356       .  A
C671        C962   1.427       .  S
N672        C673   1.357       .  A
C673        N674   1.354       .  A
C673        C994   1.425       .  S
C675        N676   1.363       .  A
C675        N680   1.369       .  A
C675        C990   1.462       .  S
N676        C677   1.361       .  A
C677        N678   1.359       .  A
C677        C960   1.452       .  S
N678        C679   1.360       .  A
C679        N680   1.369       .  A
C679       C1054   1.460       .  S
C681        N682   1.354       .  A
C681        N686   1.357       .  A
C681       C1318   1.425       .  S
N682        C683   1.353       .  A
C683        N684   1.354       .  A
C683       C1154   1.423       .  S
N684        C685   1.353       .  A
C685        N686   1.356       .  A
C685        C957   1.428       .  S
C687        N688   1.369       .  A
C687        N692   1.360       .  A
C687       C1158   1.460       .  S
N688        C689   1.369       .  A
C689        N690   1.363       .  A
C689       C1314   1.462       .  S
N690        C691   1.361       .  A
C691        N692   1.359       .  A
C691        C955   1.452       .  S
C693        N694   1.360       .  A
C693        N698   1.368       .  A
C693       C1251   1.460       .  S
N694        C695   1.359       .  A
C695        N696   1.361       .  A
C695        C953   1.452       .  S
N696        C697   1.363       .  A
C697        N698   1.369       .  A
C697       C1046   1.462       .  S
C699        N700   1.356       .  A
C699        N704   1.354       .  A
C699       C1042   1.425       .  S
N700        C701   1.355       .  A
C701        N702   1.353       .  A
C701        C952   1.427       .  S
N702        C703   1.353       .  A
C703        N704   1.353       .  A
C703       C1255   1.424       .  S
C705        N706   1.358       .  A
C705        N710   1.359       .  A
C705       C1206   1.433       .  S
N706        C707   1.356       .  A
C707        N708   1.352       .  A
C707        C950   1.429       .  S
N708        C709   1.353       .  A
C709        N710   1.357       .  A
C709       C1034   1.429       .  S
C711        N712   1.361       .  A
C711        N716   1.364       .  A
C711       C1035   1.449       .  S
N712        C713   1.360       .  A
C713        N714   1.356       .  A
C713       C1199   1.440       .  S
N714        C715   1.356       .  A
C715        N716   1.363       .  A
C715        C948   1.446       .  S
C717        N718   1.357       .  A
C717        N722   1.353       .  A
C717        C983   1.429       .  S
N718        C719   1.359       .  A
C719        N720   1.358       .  A
C719       C1098   1.433       .  S
N720        C721   1.356       .  A
C721        N722   1.352       .  A
C721        C945   1.430       .  S
C723        N724   1.359       .  A
C723        N728   1.355       .  A
C723       C1099   1.439       .  S
N724        C725   1.361       .  A
C725        N726   1.364       .  A
C725        C982   1.448       .  S
N726        C727   1.363       .  A
C727        N728   1.355       .  A
C727        C943   1.445       .  S
C729        N730   1.353       .  A
C729        N734   1.353       .  A
C729        C978   1.423       .  S
N730        C731   1.354       .  A
C731        N732   1.357       .  A
C731       C1143   1.425       .  S
N732        C733   1.356       .  A
C733        N734   1.353       .  A
C733        C941   1.427       .  S
C735        N736   1.369       .  A
C735        N740   1.360       .  A
C735        C974   1.460       .  S
N736        C737   1.369       .  A
C737        N738   1.363       .  A
C737       C1147   1.463       .  S
N738        C739   1.361       .  A
C739        N740   1.359       .  A
C739        C939   1.452       .  S
C741        N742   1.363       .  A
C741        N746   1.361       .  A
C741       C1306   1.447       .  S
N742        C743   1.362       .  A
C743        N744   1.355       .  A
C743        C937   1.443       .  S
N744        C745   1.355       .  A
C745        N746   1.359       .  A
C745       C1094   1.438       .  S
C747        N748   1.359       .  A
C747        N752   1.357       .  A
C747       C1090   1.432       .  S
N748        C749   1.357       .  A
C749        N750   1.353       .  A
C749       C1307   1.430       .  S
N750        C751   1.352       .  A
C751        N752   1.355       .  A
C751        C935   1.429       .  S
N753        N754   1.324       .  A
N753        N759   1.315       .  A
N753       Mn782   2.215   1_455  S
N754        C761   1.353       .  A
N755        N757   1.315       .  A
N755        N756   1.322       .  A
N755       Mn771   2.205       .  S
N756        C762   1.351       .  A
N757        N758   1.323       .  A
N757       Mn782   2.211       .  S
N758        C762   1.354       .  A
N759        N760   1.325       .  A
N759       Mn771   2.219   1_455  S
N760        C761   1.355       .  A
C761       C1395   1.452       .  S
C762        C966   1.444       .  S
N763        N769   1.318       .  A
N763        N764   1.320       .  A
N763       Mn793   2.198       .  S
N764        C772   1.349       .  A
N765        N766   1.319       .  A
N765        N767   1.317       .  A
N765       Mn771   2.196   1_455  S
N766        C773   1.349       .  A
N767        N768   1.320       .  A
N767       Mn793   2.199   1_455  S
N768        C773   1.349       .  A
N769        N770   1.319       .  A
N769       Mn771   2.197       .  S
N770        C772   1.347       .  A
Mn771      Cl795   2.549       .  S
C772        C942   1.429       .  S
C773        C936   1.429       .  S
N774        N775   1.320       .  A
N774        N780   1.317       .  A
N774       Mn782   2.199       .  S
N775        C783   1.348       .  A
N776        N778   1.318       .  A
N776        N777   1.319       .  A
N776       Mn794   2.197   1_455  S
N777        C784   1.347       .  A
N778        N779   1.320       .  A
N778       Mn782   2.198   1_455  S
N779        C784   1.349       .  A
N780        N781   1.320       .  A
N780       Mn794   2.200       .  S
N781        C783   1.350       .  A
Mn782      Cl795   2.548       .  S
C783        C949   1.430       .  S
C784       C1390   1.429       .  S
N785        N786   1.323       .  A
N785        N791   1.315       .  A
N785       Mn793   2.212   1_455  S
N786        C796   1.354       .  A
N787        N788   1.325       .  A
N787        N789   1.315       .  A
N787       Mn794   2.220       .  S
N788        C797   1.355       .  A
N789        N790   1.323       .  A
N789       Mn793   2.214       .  S
N790        C797   1.353       .  A
N791        N792   1.323       .  A
N791       Mn794   2.209   1_455  S
N792        C796   1.351       .  A
Mn793      Cl795   2.548       .  S
Mn794      Cl795   2.549       .  S
C796        C968   1.445       .  S
C797        C959   1.452       .  S
N798        N799   1.320       .  A
N798        N804   1.317       .  A
N798       Mn827   2.198   1_554  S
N799        C806   1.348       .  A
N800        N802   1.318       .  A
N800        N801   1.319       .  A
N800       Mn816   2.196   1_556  S
N801        C807   1.347       .  A
N802        N803   1.320       .  A
N802       Mn827   2.199       .  S
N803        C807   1.349       .  A
N804        N805   1.320       .  A
N804       Mn816   2.198       .  S
N805        C806   1.350       .  A
C806       C1355   1.430       .  S
C807        C958   1.429       .  S
N808        N814   1.315       .  A
N808        N809   1.323       .  A
N808       Mn838   2.209       .  S
N809        C817   1.353       .  A
N810        N811   1.324       .  A
N810        N812   1.315       .  A
N810       Mn816   2.217       .  S
N811        C818   1.355       .  A
N812        N813   1.324       .  A
N812       Mn838   2.217   1_554  S
N813        C818   1.353       .  A
N814        N815   1.322       .  A
N814       Mn816   2.206   1_556  S
N815        C817   1.351       .  A
Mn816      Cl840   2.549   1_554  S
C817        C938   1.443       .  S
C818       C1375   1.451       .  S
N819        N820   1.323       .  A
N819        N825   1.315       .  A
N819       Mn827   2.213       .  S
N820        C828   1.353       .  A
N821        N823   1.315       .  A
N821        N822   1.323       .  A
N821       Mn839   2.211   1_554  S
N822        C829   1.352       .  A
N823        N824   1.323       .  A
N823       Mn827   2.213   1_554  S
N824        C829   1.354       .  A
N825        N826   1.325       .  A
N825       Mn839   2.220       .  S
N826        C828   1.355       .  A
Mn827      Cl840   2.549       .  S
C828        C940   1.452       .  S
C829        C947   1.447       .  S
N830        N831   1.320       .  A
N830        N836   1.318       .  A
N830       Mn838   2.196   1_554  S
N831        C841   1.349       .  A
N832        N833   1.320       .  A
N832        N834   1.317       .  A
N832       Mn839   2.200       .  S
N833        C842   1.350       .  A
N834        N835   1.320       .  A
N834       Mn838   2.200       .  S
N835        C842   1.349       .  A
N836        N837   1.319       .  A
N836       Mn839   2.197   1_554  S
N837        C841   1.347       .  A
Mn838      Cl840   2.549       .  S
Mn839      Cl840   2.549       .  S
C841        C951   1.428       .  S
C842        C946   1.431       .  S
N843        N844   1.325       .  A
N843        N849   1.315       .  A
N843       Mn872   2.220       .  S
N844        C851   1.355       .  A
N845        N847   1.315       .  A
N845        N846   1.323   1_545  A
N845       Mn861   2.213       .  S
N846        C852   1.354       .  A
N847        N848   1.322   1_545  A
N847       Mn872   2.207       .  S
N848        C852   1.351       .  A
N849        N850   1.323       .  A
N849       Mn861   2.214       .  S
N850        C851   1.353       .  A
C851        C956   1.452       .  S
C852        C944   1.445       .  S
N853        N859   1.317       .  A
N853        N854   1.319   1_545  A
N853       Mn883   2.199       .  S
N854        C862   1.350       .  A
N855        N856   1.320       .  A
N855        N857   1.318       .  A
N855       Mn861   2.198       .  S
N856        C863   1.349       .  A
N857        N858   1.319       .  A
N857       Mn883   2.196       .  S
N858        C863   1.347       .  A
N859        N860   1.320   1_545  A
N859       Mn861   2.198       .  S
N860        C862   1.349       .  A
Mn861      Cl885   2.548       .  S
C862        C970   1.430       .  S
C863       C1410   1.429       .  S
N864        N865   1.319   1_545  A
N864        N870   1.318       .  A
N864       Mn872   2.197       .  S
N865        C873   1.347       .  A
N866        N868   1.317       .  A
N866        N867   1.320       .  A
N866       Mn884   2.197       .  S
N867        C874   1.348       .  A
N868        N869   1.319       .  A
N868       Mn872   2.196       .  S
N869        C874   1.349       .  A
N870        N871   1.320   1_545  A
N870       Mn884   2.199       .  S
N871        C873   1.349       .  A
Mn872      Cl885   2.550       .  S
C873        C961   1.429       .  S
C874        C963   1.429       .  S
N875        N876   1.322       .  A
N875        N881   1.315       .  A
N875       Mn883   2.208       .  S
N876        C886   1.351       .  A
N877        N878   1.323   1_545  A
N877        N879   1.315   1_545  A
N877       Mn884   2.214       .  S
N878        C887   1.353       .  A
N879        N880   1.325       .  A
N879       Mn883   2.219   1_565  S
N880        C887   1.355       .  A
N881        N882   1.323       .  A
N881       Mn884   2.213       .  S
N882        C886   1.354       .  A
Mn883      Cl885   2.549       .  S
Mn884      Cl885   2.548       .  S
C886       C1369   1.445       .  S
C887        C954   1.452       .  S
O888        C915   1.266       .  A
O888       Mn914   2.075       .  S
C889       C1298   1.424       .  S
C889        O922   1.265       .  A
C889        O919   1.269       .  A
O890       Mn897   2.162       .  S
O890       Mn908   2.146       .  S
O890       Mn912   2.162       .  S
O890       Mn914   2.140       .  S
O891        C901   1.268       .  A
O891       Mn925   2.089       .  S
O892        C915   1.268       .  A
O892       Mn908   2.089       .  S
O893        C920   1.257       .  A
O893       Mn912   2.119       .  S
O894       Mn925   1.956       .  S
O894       Mn914   1.968       .  S
O894        C910   1.220       .  S
C895       C1374   1.447       .  S
C895        O898   1.256       .  A
C895        O921   1.221       .  S
O896       Mn916   2.139       .  S
O896       Mn897   2.163       .  S
O896       Mn930   2.147       .  S
O896       Mn912   2.162       .  S
Mn897       O926   2.128       .  S
Mn897       O902   2.119       .  S
Mn897       O929   2.114       .  S
Mn897       O903   2.168       .  S
O898       Mn912   2.114       .  S
O899        C901   1.265       .  A
O899       Mn906   2.071       .  S
C900       C1288   1.461       .  S
C900        O926   1.256       .  A
C900        O913   1.220       .  S
C901       C1408   1.424       .  S
O902        C927   1.257       .  A
O903       Mn906   2.140       .  S
O903       Mn925   2.140       .  S
O903       Mn912   2.168       .  S
O904       Mn908   1.978       .  S
O904       Mn930   1.971       .  S
O904        C927   1.225       .  S
C905       C1364   1.431       .  S
C905        O931   1.268       .  A
C905        O907   1.271       .  A
Mn906       O919   2.091       .  S
Mn906       O921   1.961       .  S
Mn906       O913   1.957       .  S
O907       Mn930   2.094       .  S
Mn908       O924   2.094       .  S
Mn908       O918   1.971       .  S
O909        C911   1.267       .  A
O909       Mn914   2.081       .  S
C910       C1400   1.461       .  S
C910        O928   1.256       .  A
C911       C1236   1.429       .  S
C911        O924   1.271       .  A
Mn912       O928   2.129       .  S
O913       Mn916   1.969       .  S
Mn914       O932   1.965       .  S
C915       C1385   1.426       .  S
Mn916       O923   2.076       .  S
Mn916       O931   2.083       .  S
Mn916       O921   1.964       .  S
C917       C1340   1.426       .  S
C917        O923   1.266       .  A
C917        O933   1.268       .  A
O918       Mn930   1.977       .  S
O918        C920   1.225       .  S
C920       C1380   1.460       .  S
O922       Mn925   2.070       .  S
Mn925       O932   1.961       .  S
C927       C1347   1.460       .  S
O929        C934   1.256       .  A
Mn930       O933   2.089       .  S
O932        C934   1.221       .  S
C934       C1246   1.447       .  S
C935        C936   1.202       .  T
C937        C938   1.210       .  T
C939        C940   1.215       .  T
C941        C942   1.201       .  T
C943        C944   1.211       .  T
C945        C946   1.202       .  T
C947        C948   1.212       .  T
C949        C950   1.202       .  T
C951        C952   1.201       .  T
C953        C954   1.215       .  T
C955        C956   1.215       .  T
C957        C958   1.201       .  T
C959        C960   1.215       .  T
C961        C962   1.201       .  T
C963        C964   1.201       .  T
C965        C966   1.210       .  T
C967        C968   1.211       .  T
C969        C970   1.202       .  T
C971        C972   1.221       .  T
C972        C973   1.436       .  S
C973        C974   1.220       .  T
C975        C976   1.199       .  T
C976        C977   1.401       .  S
C977        C978   1.199       .  T
C979        C980   1.213       .  T
C980        C981   1.424       .  S
C981        C982   1.213       .  T
C983        C984   1.202       .  T
C984        C985   1.407       .  S
C985        C986   1.203       .  T
C987        C988   1.221       .  T
C988        C989   1.437       .  S
C989        C990   1.222       .  T
C991        C992   1.200       .  T
C992        C993   1.402       .  S
C993        C994   1.200       .  T
C995        C996   1.202       .  T
C997        C998   1.202       .  T
C998        C999   1.407       .  S
C999       C1000   1.202       .  T
C1001      C1002   1.211       .  T
C1003      C1004   1.213       .  T
C1004      C1005   1.424       .  S
C1005      C1006   1.213       .  T
C1007      C1008   1.215       .  T
C1009      C1010   1.221       .  T
C1010      C1011   1.437       .  S
C1011      C1012   1.221       .  T
C1013      C1014   1.201       .  T
C1015      C1016   1.199       .  T
C1016      C1017   1.402       .  S
C1017      C1018   1.199       .  T
C1019      C1020   1.215       .  T
C1021      C1022   1.221       .  T
C1022      C1023   1.436       .  S
C1023      C1024   1.221       .  T
C1025      C1026   1.201       .  T
C1027      C1028   1.198       .  T
C1028      C1029   1.401       .  S
C1029      C1030   1.199       .  T
C1031      C1032   1.202       .  T
C1032      C1033   1.407       .  S
C1033      C1034   1.202       .  T
C1035      C1036   1.214       .  T
C1036      C1037   1.425       .  S
C1037      C1038   1.213       .  T
C1039      C1040   1.200       .  T
C1040      C1041   1.402       .  S
C1041      C1042   1.199       .  T
C1043      C1044   1.221       .  T
C1044      C1045   1.437       .  S
C1045      C1046   1.221       .  T
C1047      C1048   1.199       .  T
C1048      C1049   1.401       .  S
C1049      C1050   1.199       .  T
C1051      C1052   1.221       .  T
C1052      C1053   1.436       .  S
C1053      C1054   1.221       .  T
C1055      C1056   1.199       .  T
C1056      C1057   1.401       .  S
C1057      C1058   1.199       .  T
C1059      C1060   1.221       .  T
C1060      C1061   1.438       .  S
C1061      C1062   1.222       .  T
C1063      C1064   1.210       .  T
C1065      C1066   1.212       .  T
C1066      C1067   1.423       .  S
C1067      C1068   1.213       .  T
C1069      C1070   1.202       .  T
C1071      C1072   1.202       .  T
C1072      C1073   1.406       .  S
C1073      C1074   1.202       .  T
C1075      C1076   1.215       .  T
C1077      C1078   1.221       .  T
C1078      C1079   1.437       .  S
C1079      C1080   1.221       .  T
C1081      C1082   1.201       .  T
C1083      C1084   1.199       .  T
C1084      C1085   1.402       .  S
C1085      C1086   1.200       .  T
C1087      C1088   1.204       .  T
C1088      C1089   1.409       .  S
C1089      C1090   1.204       .  T
C1091      C1092   1.207       .  T
C1092      C1093   1.415       .  S
C1093      C1094   1.207       .  T
C1095      C1096   1.204       .  T
C1096      C1097   1.410       .  S
C1097      C1098   1.204       .  T
C1099      C1100   1.208       .  T
C1100      C1101   1.416       .  S
C1101      C1102   1.208       .  T
C1103      C1104   1.204       .  T
C1104      C1105   1.409       .  S
C1105      C1106   1.204       .  T
C1107      C1108   1.208       .  T
C1108      C1109   1.415       .  S
C1109      C1110   1.208       .  T
C1111      C1112   1.204       .  T
C1112      C1113   1.409       .  S
C1113      C1114   1.204       .  T
C1115      C1116   1.207       .  T
C1116      C1117   1.415       .  S
C1117      C1118   1.208       .  T
C1119      C1120   1.211       .  T
C1121      C1122   1.208       .  T
C1122      C1123   1.416       .  S
C1123      C1124   1.208   1_565  T
C1125      C1126   1.202       .  T
C1127      C1128   1.204       .  T
C1128      C1129   1.409       .  S
C1129      C1130   1.204       .  T
C1131      C1132   1.202       .  T
C1133      C1134   1.204       .  T
C1134      C1135   1.409       .  S
C1135      C1136   1.204       .  T
C1137      C1138   1.211       .  T
C1139      C1140   1.207       .  T
C1140      C1141   1.414       .  S
C1141      C1142   1.207       .  T
C1143      C1144   1.199       .  T
C1144      C1145   1.402       .  S
C1145      C1146   1.199       .  T
C1147      C1148   1.222       .  T
C1148      C1149   1.438       .  S
C1149      C1150   1.221       .  T
C1151      C1152   1.199       .  T
C1152      C1153   1.401       .  S
C1153      C1154   1.199       .  T
C1155      C1156   1.221       .  T
C1156      C1157   1.436       .  S
C1157      C1158   1.220       .  T
C1159      C1160   1.202       .  T
C1160      C1161   1.406       .  S
C1161      C1162   1.202       .  T
C1163      C1164   1.212       .  T
C1164      C1165   1.423       .  S
C1165      C1166   1.213       .  T
C1167      C1168   1.199       .  T
C1168      C1169   1.401       .  S
C1169      C1170   1.198       .  T
C1171      C1172   1.220       .  T
C1172      C1173   1.436       .  S
C1173      C1174   1.220       .  T
C1175      C1176   1.201       .  T
C1177      C1178   1.199       .  T
C1178      C1179   1.402       .  S
C1179      C1180   1.200       .  T
C1181      C1182   1.216       .  T
C1183      C1184   1.222       .  T
C1184      C1185   1.438       .  S
C1185      C1186   1.221       .  T
C1187      C1188   1.212       .  T
C1189      C1190   1.213       .  T
C1190      C1191   1.424       .  S
C1191      C1192   1.213       .  T
C1193      C1194   1.202       .  T
C1195      C1196   1.203       .  T
C1196      C1197   1.407       .  S
C1197      C1198   1.203       .  T
C1199      C1200   1.208       .  T
C1200      C1201   1.416       .  S
C1201      C1202   1.208       .  T
C1203      C1204   1.204       .  T
C1204      C1205   1.410       .  S
C1205      C1206   1.204       .  T
C1207      C1208   1.208       .  T
C1208      C1209   1.415       .  S
C1209      C1210   1.208       .  T
C1211      C1212   1.203       .  T
C1212      C1213   1.408       .  S
C1213      C1214   1.203       .  T
C1215      C1216   1.207       .  T
C1216      C1217   1.415       .  S
C1217      C1218   1.207       .  T
C1219      C1220   1.203       .  T
C1220      C1221   1.408       .  S
C1221      C1222   1.203       .  T
C1223      C1224   1.208       .  T
C1224      C1225   1.416       .  S
C1225      C1226   1.208       .  T
C1227      C1228   1.204       .  T
C1228      C1229   1.410       .  S
C1229      C1230   1.204       .  T
C1231      C1232   1.202       .  T
C1233      C1234   1.202       .  T
C1234      C1235   1.406       .  S
C1235      C1236   1.202       .  T
C1237      C1238   1.203       .  T
C1238      C1239   1.408       .  S
C1239      C1240   1.203       .  T
C1241      C1242   1.211       .  T
C1243      C1244   1.213       .  T
C1244      C1245   1.424       .  S
C1245      C1246   1.213       .  T
C1247      C1248   1.208       .  T
C1248      C1249   1.416       .  S
C1249      C1250   1.208       .  T
C1251      C1252   1.220       .  T
C1252      C1253   1.436       .  S
C1253      C1254   1.220       .  T
C1255      C1256   1.199       .  T
C1256      C1257   1.402       .  S
C1257      C1258   1.200       .  T
C1259      C1260   1.213       .  T
C1260      C1261   1.424       .  S
C1261      C1262   1.213       .  T
C1263      C1264   1.203       .  T
C1264      C1265   1.407       .  S
C1265      C1266   1.202       .  T
C1267      C1268   1.221       .  T
C1268      C1269   1.438       .  S
C1269      C1270   1.222       .  T
C1271      C1272   1.199       .  T
C1272      C1273   1.402       .  S
C1273      C1274   1.199       .  T
C1275      C1276   1.213       .  T
C1276      C1277   1.423       .  S
C1277      C1278   1.212       .  T
C1279      C1280   1.203       .  T
C1280      C1281   1.407       .  S
C1281      C1282   1.203       .  T
C1283      C1284   1.215       .  T
C1285      C1286   1.221       .  T
C1286      C1287   1.437       .  S
C1287      C1288   1.221       .  T
C1289      C1290   1.221       .  T
C1290      C1291   1.436       .  S
C1291      C1292   1.221       .  T
C1293      C1294   1.201       .  T
C1295      C1296   1.200       .  T
C1296      C1297   1.402       .  S
C1297      C1298   1.200       .  T
C1299      C1300   1.199       .  T
C1300      C1301   1.403       .  S
C1301      C1302   1.200       .  T
C1303      C1304   1.212       .  T
C1304      C1305   1.423       .  S
C1305      C1306   1.213       .  T
C1307      C1308   1.203       .  T
C1308      C1309   1.407       .  S
C1309      C1310   1.203       .  T
C1311      C1312   1.221       .  T
C1312      C1313   1.437       .  S
C1313      C1314   1.222       .  T
C1315      C1316   1.199       .  T
C1316      C1317   1.402       .  S
C1317      C1318   1.199       .  T
C1319      C1320   1.213       .  T
C1320      C1321   1.424       .  S
C1321      C1322   1.213       .  T
C1323      C1324   1.202       .  T
C1324      C1325   1.407       .  S
C1325      C1326   1.203       .  T
C1327      C1328   1.221       .  T
C1328      C1329   1.436       .  S
C1329      C1330   1.220       .  T
C1331      C1332   1.199       .  T
C1332      C1333   1.402       .  S
C1333      C1334   1.199       .  T
C1335      C1336   1.201       .  T
C1337      C1338   1.200       .  T
C1338      C1339   1.403       .  S
C1339      C1340   1.200       .  T
C1341      C1342   1.200       .  T
C1342      C1343   1.403       .  S
C1343      C1344   1.200       .  T
C1345      C1346   1.215       .  T
C1347      C1348   1.221       .  T
C1348      C1349   1.436       .  S
C1349      C1350   1.220       .  T
C1351      C1352   1.221       .  T
C1352      C1353   1.437       .  S
C1353      C1354   1.221       .  T
C1355      C1356   1.202       .  T
C1357      C1358   1.204       .  T
C1358      C1359   1.409       .  S
C1359      C1360   1.204       .  T
C1361      C1362   1.203       .  T
C1362      C1363   1.407       .  S
C1363      C1364   1.203       .  T
C1365      C1366   1.208       .  T
C1366      C1367   1.415       .  S
C1367      C1368   1.208       .  T
C1369      C1370   1.211       .  T
C1371      C1372   1.213       .  T
C1372      C1373   1.424       .  S
C1373      C1374   1.213       .  T
C1375      C1376   1.215       .  T
C1377      C1378   1.221       .  T
C1378      C1379   1.436       .  S
C1379      C1380   1.221       .  T
C1381      C1382   1.221       .  T
C1382      C1383   1.437       .  S
C1383      C1384   1.221       .  T
C1385      C1386   1.200       .  T
C1386      C1387   1.403       .  S
C1387      C1388   1.200       .  T
C1389      C1390   1.201       .  T
C1391      C1392   1.200       .  T
C1392      C1393   1.403       .  S
C1393      C1394   1.200       .  T
C1395      C1396   1.215       .  T
C1397      C1398   1.222       .  T
C1398      C1399   1.438       .  S
C1399      C1400   1.221       .  T
C1401      C1402   1.221       .  T
C1402      C1403   1.437       .  S
C1403      C1404   1.221       .  T
C1405      C1406   1.199       .  T
C1406      C1407   1.402       .  S
C1407      C1408   1.199       .  T
C1409      C1410   1.201       .  T
C1411      C1412   1.200       .  T
C1412      C1413   1.402       .  S
C1413      C1414   1.199       .  T
