geometry optimzed in LAMMPS
_audit_creation_date              2020-12-01 
_audit_creation_method            'lammps2cif' 
_symmetry_space_group_name_H-M    'P1' 
_symmetry_Int_Tables_number       1 
_symmetry_cell_setting            triclinic 
loop_ 
_symmetry_equiv_pos_as_xyz 
  x,y,z 
_cell_length_a                    30.07225258 
_cell_length_b                    30.263216680188606 
_cell_length_c                    29.99155644732275 
_cell_angle_alpha                 90.0532973011759 
_cell_angle_beta                  90.44786620858275 
_cell_angle_gamma                 89.93993400248101 
loop_ 
_atom_site_label 
_atom_site_type_symbol 
_atom_site_fract_x 
_atom_site_fract_y 
_atom_site_fract_z 
_atom_site_charge 
C1          C  0.72381992  0.32707393  0.26964860     0.02300
C2          C  0.74050383  0.30551225  0.30842838    -0.13900
C3          C  0.72011716  0.26696086  0.32594847    -0.00200
C4          C  0.68163972  0.25080168  0.30420279    -0.12400
C5          C  0.66439952  0.27076187  0.26515956     0.02300
C6          C  0.68609674  0.30846622  0.24820267    -0.11800
H7          H  0.76956261  0.31869614  0.32508090     0.07900
H8          H  0.66429924  0.22293093  0.31839349     0.05400
H9          H  0.67413412  0.32254623  0.21724677     0.05300
C10         C  0.72951363  0.77775944  0.27381823     0.02300
C11         C  0.74683909  0.79369513  0.31497360    -0.13900
C12         C  0.73115701  0.83306457  0.33503790    -0.00200
C13         C  0.69536730  0.85552906  0.31411237    -0.12400
C14         C  0.67550362  0.83985573  0.27430353     0.02300
C15         C  0.69378442  0.80161989  0.25409317    -0.11800
H16         H  0.77212292  0.77490086  0.33228035     0.07900
H17         H  0.68252554  0.88536034  0.32903934     0.05400
H18         H  0.68056073  0.79120740  0.22220207     0.05300
C19         C  0.22073124  0.84194210  0.27500108     0.02300
C20         C  0.19967650  0.80461689  0.25521366    -0.13900
C21         C  0.16271542  0.78320081  0.27521150    -0.00200
C22         C  0.14661052  0.80117620  0.31578166    -0.12400
C23         C  0.16501320  0.83976280  0.33542726     0.02300
C24         C  0.20237948  0.85904378  0.31478198    -0.11800
H25         H  0.21160538  0.79292699  0.22346823     0.07900
H26         H  0.12012432  0.78448599  0.33300214     0.05400
H27         H  0.21733803  0.88777706  0.32992207     0.05300
C28         C  0.22344852  0.82995836  0.84117730     0.02300
C29         C  0.20344998  0.85114593  0.80416860    -0.13900
C30         C  0.16338863  0.83555502  0.78473468    -0.00200
C31         C  0.14318852  0.79755087  0.80374786    -0.12400
C32         C  0.16254457  0.77508436  0.84068787     0.02300
C33         C  0.20308904  0.79159973  0.85818823    -0.11800
H34         H  0.21923242  0.88015007  0.79051705     0.07900
H35         H  0.11161051  0.78625096  0.79059957     0.05400
H36         H  0.21966261  0.77399851  0.88491075     0.05300
C37         C  0.72773754  0.26393252  0.77800762     0.02300
C38         C  0.74764952  0.30078462  0.79926453    -0.13900
C39         C  0.73098900  0.31843569  0.83975185    -0.00200
C40         C  0.69319558  0.29752733  0.85873865    -0.12400
C41         C  0.67169020  0.26115836  0.83773366     0.02300
C42         C  0.68926624  0.24555893  0.79717849    -0.11800
H43         H  0.77637741  0.31562922  0.78402260     0.07900
H44         H  0.68102737  0.30881480  0.89057763     0.05400
H45         H  0.67210434  0.21937719  0.77959532     0.05300
C46         C  0.73246903  0.82966646  0.78629866     0.02300
C47         C  0.69266743  0.84585787  0.80543089    -0.13900
C48         C  0.67310584  0.82574307  0.84317283    -0.00200
C49         C  0.69297217  0.78660597  0.85998776    -0.12400
C50         C  0.73274856  0.76893248  0.84180187     0.02300
C51         C  0.75235462  0.79183904  0.80583186    -0.11800
H52         H  0.67616067  0.87393869  0.79044899     0.07900
H53         H  0.67748116  0.77026462  0.88778354     0.05400
H54         H  0.78422370  0.78088531  0.79376902     0.05300
C55         C  0.21882407  0.26593939  0.83200326     0.02300
C56         C  0.20167555  0.30432325  0.85314271    -0.13900
C57         C  0.16373071  0.32713435  0.83660654    -0.00200
C58         C  0.14299832  0.31050011  0.79724347    -0.12400
C59         C  0.15851994  0.27210655  0.77511086     0.02300
C60         C  0.19690919  0.25087760  0.79287835    -0.11800
H61         H  0.21783001  0.31641152  0.88297616     0.07900
H62         H  0.11418940  0.32727894  0.78389237     0.05400
H63         H  0.20970794  0.22193637  0.77636404     0.05300
C64         C  0.21698541  0.26969554  0.26930574     0.02300
C65         C  0.19899315  0.31050561  0.25461978    -0.13900
C66         C  0.16017413  0.32899617  0.27350172    -0.00200
C67         C  0.14046594  0.30671387  0.30960948    -0.12400
C68         C  0.15770864  0.26647946  0.32638136     0.02300
C69         C  0.19581366  0.24823359  0.30555411    -0.11800
H70         H  0.21578512  0.32855513  0.22866032     0.07900
H71         H  0.11117373  0.32074026  0.32470462     0.05400
H72         H  0.20804901  0.21650073  0.31676490     0.05300
O73         O  0.00313697  0.11853655  0.55208522    -0.56300
O74         O  0.83457782  0.19386540  0.49609191    -0.64200
C75         C  0.79904978  0.17618052  0.48152436     0.96700
O76         O  0.15159305  0.02665894  0.56369004    -0.69400
O77         O  0.06517675  0.05898607  0.60555170    -0.67300
C78         C  0.71752234  0.04040959  0.55924395     0.88700
O79         O  0.89433959  0.25140697  0.54094481    -0.69400
C80         C  0.80314096  0.18267710  0.61733350     0.96300
C81         C  0.93050169  0.27187086  0.53514105     0.89300
Ti82       Ti  0.88291778  0.18352516  0.54762450     1.51200
Ti83       Ti  0.00138638  0.92232909  0.55996442     1.51300
O84         O  0.93599412  0.17856327  0.59610197    -0.63300
O85         O  0.81515817  0.04362119  0.50822036    -0.67300
C86         C  0.08348129  0.92687922  0.62964703     0.96700
O87         O  0.87946225  0.98452014  0.55895596    -0.56300
C88         C  0.81421110  0.91026989  0.49559073     0.96400
Ti89       Ti  0.80250422  0.09745992  0.55364998     1.51000
Ti90       Ti  0.98676724  0.18758927  0.54655378     1.53000
Ti91       Ti  0.07347283  0.10869965  0.55521836     1.49300
O92         O  0.79785176  0.95105244  0.61565095    -0.63000
O93         O  0.73990870  0.00494435  0.56067881    -0.69400
O94         O  0.96855419  0.25391368  0.53815824    -0.66300
O95         O  0.87178235  0.11392811  0.55221646    -0.56300
O96         O  0.06974104  0.05465202  0.50871455    -0.67200
O97         O  0.04712121  0.90865436  0.50688040    -0.64100
O98         O  0.93462180  0.17016570  0.49971116    -0.63300
O99         O  0.85167676  0.90032559  0.61583717    -0.64700
O100        O  0.99049927  0.85517553  0.56318705    -0.69500
O101        O  0.83663577  0.20077840  0.59917259    -0.64100
O102        O  0.01335584  0.99127829  0.55754434    -0.56300
C103        C  0.95625791  0.83272668  0.57161592     0.89200
O104        O  0.81798267  0.04970513  0.60488727    -0.67300
O105        O  0.03351195  0.21064822  0.59817484    -0.64700
O106        O  0.04989071  0.90881327  0.61126724    -0.64100
C107        C  0.06698384  0.19342915  0.61825477     0.96600
C108        C  0.81617229  0.91670819  0.63201048     0.96500
C109        C  0.16586336  0.06633983  0.56434665     0.88600
O110        O  0.09888333  0.96358526  0.61589668    -0.63500
O111        O  0.78322546  0.14086139  0.49858645    -0.63400
C112        C  0.08400349  0.92403737  0.49308187     0.96200
Ti113      Ti  0.08309989  0.00668347  0.56038966     1.51000
O114        O  0.85101850  0.89559356  0.51111628    -0.64700
O115        O  0.78721414  0.14597726  0.60378157    -0.63500
O116        O  0.08913263  0.15369935  0.50192146    -0.63000
O117        O  0.91700619  0.84840193  0.56954134    -0.69600
O118        O  0.03216668  0.19977661  0.49270551    -0.64700
O119        O  0.14099497  0.09964952  0.55999505    -0.69200
O120        O  0.79528837  0.94442405  0.51144654    -0.63000
Ti121      Ti  0.89743502  0.91576879  0.56274911     1.53200
O122        O  0.08313034  0.15672210  0.60604579    -0.63000
O123        O  0.94745625  0.92845877  0.51285224    -0.63400
O124        O  0.10256528  0.95774199  0.51107226    -0.63500
C125        C  0.07000044  0.18504703  0.48104177     0.96600
O126        O  0.73489853  0.07865814  0.55674054    -0.69400
Ti127      Ti  0.80891539  0.99463911  0.56016738     1.49500
O128        O  0.94999853  0.93274408  0.60934041    -0.63400
O129        O  0.44657321  0.98850145  0.12435860    -0.56300
O130        O  0.49432869  0.15758570  0.19335132    -0.64200
C131        C  0.50802528  0.19363638  0.17702065     0.96700
O132        O  0.44697744  0.84463292  0.03019819    -0.69400
O133        O  0.39998160  0.92600064  0.06142229    -0.67300
C134        C  0.43776102  0.27278188  0.03437415     0.88700
O135        O  0.44647924  0.10177738  0.25070140    -0.69400
C136        C  0.37194648  0.19046207  0.17823825     0.96300
C137        C  0.45029937  0.06869784  0.27594755     0.89300
Ti138      Ti  0.44308918  0.11034427  0.18276256     1.51200
Ti139      Ti  0.44858960  0.98979766  0.92091854     1.51300
O140        O  0.39665863  0.05613019  0.17816212    -0.63300
O141        O  0.48925774  0.17608482  0.04657741    -0.67300
C142        C  0.38116852  0.90795904  0.92673455     0.96700
O143        O  0.44413500  0.11027918  0.98317184    -0.56300
C144        C  0.51228966  0.17572729  0.91277251     0.96400
Ti145      Ti  0.43916544  0.19065994  0.09575202     1.51000
Ti146      Ti  0.44747682  0.00725768  0.19355931     1.53000
Ti147      Ti  0.44828593  0.91851901  0.11453586     1.49300
O148        O  0.39024336  0.19064225  0.94481250    -0.63000
O149        O  0.43970046  0.24756313  0.00097375    -0.69400
O150        O  0.44963360  0.02886993  0.26193353    -0.69500
O151        O  0.44057379  0.12109993  0.11266832    -0.56300
O152        O  0.49640092  0.92616240  0.06177817    -0.67200
O153        O  0.50259150  0.94428906  0.91047321    -0.64100
O154        O  0.49290979  0.05936707  0.17544222    -0.63300
O155        O  0.39160766  0.13779341  0.89329989    -0.64700
O156        O  0.44784438  0.99946177  0.85155574    -0.69500
O157        O  0.39029618  0.15682892  0.19629520    -0.64100
O158        O  0.44831466  0.98025349  0.99180361    -0.56300
C159        C  0.44661873  0.03484334  0.82903102     0.89200
O160        O  0.39259771  0.17302100  0.04377996    -0.67300
O161        O  0.39678821  0.95983702  0.21294285    -0.64700
O162        O  0.39872418  0.94081809  0.90723051    -0.64100
C163        C  0.38072759  0.92403821  0.19673418     0.96600
C164        C  0.37455552  0.17286359  0.90979303     0.96500
C165        C  0.44829489  0.82747716  0.06889151     0.88600
O166        O  0.39499612  0.89404754  0.96445722    -0.63500
O167        O  0.48981325  0.21134580  0.14296298    -0.63400
C168        C  0.51729012  0.90897177  0.92845421     0.96200
Ti169      Ti  0.44788431  0.91148844  0.01015507     1.51000
O170        O  0.49753647  0.13954812  0.89652190    -0.64700
O171        O  0.38555640  0.20646253  0.14128969    -0.63500
O172        O  0.50008883  0.90719889  0.16272402    -0.63000
O173        O  0.44680460  0.07328193  0.84612573    -0.69600
O174        O  0.50254346  0.96347422  0.21091510    -0.64700
O175        O  0.44980127  0.84980814  0.10461991    -0.69200
O176        O  0.49464996  0.19378609  0.94660671    -0.63000
Ti177      Ti  0.44541075  0.09301359  0.91345822     1.53200
O178        O  0.39654378  0.90592689  0.16191880    -0.63000
O179        O  0.49490301  0.04359913  0.92926089    -0.63400
O180        O  0.49973585  0.89244560  0.96339937    -0.63500
C181        C  0.51756433  0.92676890  0.19608764     0.96600
O182        O  0.43759396  0.25876379  0.07454060    -0.69400
Ti183      Ti  0.44197023  0.18018182  0.99263610     1.49500
O184        O  0.39846925  0.04072411  0.92723065    -0.63400
O185        O  0.88443860  0.54562815  0.99197565    -0.56300
O186        O  0.79043939  0.50122997  0.15647041    -0.64200
C187        C  0.80854111  0.48516571  0.19168461     0.96700
O188        O  0.99015923  0.53929033  0.85906075    -0.69400
O189        O  0.94846215  0.59255721  0.93109258    -0.67300
C190        C  0.94242110  0.56592468  0.28038937     0.88700
O191        O  0.73885668  0.55336657  0.08791160    -0.69400
C192        C  0.80837232  0.62063496  0.18694850     0.96300
C193        C  0.72357560  0.55452947  0.04817298     0.89300
Ti194      Ti  0.80758641  0.55039486  0.10715290     1.51200
Ti195      Ti  0.08654657  0.55312396  0.00969711     1.51300
O196        O  0.82360225  0.59572416  0.05430295    -0.63300
O197        O  0.94526516  0.50659603  0.18466082    -0.67300
C198        C  0.08246141  0.61811028  0.92541188     0.96700
O199        O  0.01187327  0.55344459  0.12408324    -0.56300
C200        C  0.07804376  0.48853896  0.19626428     0.96400
Ti201      Ti  0.89122124  0.55325137  0.19219236     1.51000
Ti202      Ti  0.81451313  0.54620727  0.00337269     1.53000
Ti203      Ti  0.89930746  0.54091150  0.92200599     1.49300
O204        O  0.04053853  0.61148920  0.20753436    -0.63000
O205        O  0.97958129  0.56242554  0.26104741    -0.69400
O206        O  0.74714999  0.54930776  0.01395106    -0.69500
O207        O  0.87739445  0.54831561  0.12267414    -0.56300
O208        O  0.95305582  0.49721581  0.94012557    -0.67200
O209        O  0.10561238  0.50044378  0.96373482    -0.64100
O210        O  0.82051114  0.49985346  0.05763792    -0.63300
O211        O  0.09704661  0.60628370  0.16044817    -0.64700
O212        O  0.15465635  0.55520310  0.02744158    -0.69500
O213        O  0.79129810  0.60445408  0.15152254    -0.64100
O214        O  0.01642141  0.55228333  0.99565489    -0.56300
C215        C  0.17298099  0.55386980  0.06583093     0.89200
O216        O  0.94211787  0.60195144  0.17825970    -0.67300
O217        O  0.80310986  0.59712682  0.95580438    -0.64700
O218        O  0.09993057  0.60461538  0.96191529    -0.64100
C219        C  0.81805235  0.60967887  0.91848616     0.96600
C220        C  0.07778395  0.62520155  0.19297649     0.96500
C221        C  0.95541435  0.52833173  0.83794651     0.88600
O222        O  0.04829959  0.59950714  0.90804671    -0.63500
O223        O  0.84479554  0.50055349  0.20827933    -0.63400
C224        C  0.08716289  0.48204332  0.93007574     0.96200
Ti225      Ti  0.00290521  0.54675986  0.92622314     1.51000
O226        O  0.09483507  0.50253187  0.16021704    -0.64700
O227        O  0.84349646  0.60460831  0.20440870    -0.63500
O228        O  0.85518372  0.48602014  0.91006380    -0.63000
O229        O  0.15138941  0.55316091  0.10197362    -0.69600
O230        O  0.79863956  0.49340929  0.95686022    -0.64700
O231        O  0.91659432  0.53125215  0.85417534    -0.69200
O232        O  0.04402238  0.50669964  0.21386768    -0.63000
Ti233      Ti  0.08252830  0.55406176  0.11331866     1.53200
O234        O  0.85074722  0.59013852  0.89982313    -0.63000
O235        O  0.07442516  0.50550165  0.06148872    -0.63400
O236        O  0.05033853  0.49575965  0.91470920    -0.63500
C237        C  0.81761618  0.47350669  0.92467705     0.96600
O238        O  0.90533719  0.56013227  0.26074642    -0.69400
Ti239      Ti  0.99588965  0.55685294  0.19374579     1.49500
O240        O  0.07334049  0.60165917  0.06061602    -0.63400
N241        N  0.95171064  0.52893345  0.50700060    -0.37400
N242        N  0.97559065  0.61410526  0.53535224    -0.58000
N243        N  0.00820953  0.58092946  0.62074843    -0.37400
N244        N  0.98473395  0.49417515  0.58772352    -0.58000
C245        C  0.92838178  0.55426342  0.47845432     0.26100
C246        C  0.93382854  0.48840602  0.50543275     0.26100
C247        C  0.00090828  0.62408275  0.62906428     0.26100
C248        C  0.00020455  0.55928309  0.65896021     0.26100
C249        C  0.97014209  0.62198975  0.49166033     0.34800
C250        C  0.00089942  0.64693198  0.55125146     0.34800
C251        C  0.97862450  0.45587378  0.56605402     0.34800
C252        C  0.00118321  0.48373196  0.62798313     0.34800
C253        C  0.89518375  0.52923975  0.45818327    -0.22700
C254        C  0.89864957  0.48736643  0.47543729    -0.22700
C255        C  0.99134003  0.63068195  0.67356628    -0.22700
C256        C  0.99110249  0.58956008  0.69270433    -0.22700
C257        C  0.99196561  0.66022187  0.47923200    -0.23800
C258        C  0.01121842  0.67647581  0.51749163    -0.23800
C259        C  0.99340845  0.42073462  0.59208637    -0.23800
C260        C  0.00708731  0.43855451  0.63188016    -0.23800
C261        C  0.94337795  0.59569837  0.46425652    -0.19100
C262        C  0.95120294  0.45210254  0.52814877    -0.19100
C263        C  0.99923393  0.51295085  0.66360273    -0.19100
C264        C  0.00121211  0.65692309  0.59654486    -0.19100
H265        H  0.87185385  0.53928635  0.43256757     0.13800
H266        H  0.87848474  0.45919138  0.46607744     0.13800
H267        H  0.98407464  0.66162680  0.69012772     0.13800
H268        H  0.98379710  0.58287230  0.72728826     0.13800
H269        H  0.99219450  0.67568030  0.44670843     0.12100
H270        H  0.02833226  0.70775976  0.52080532     0.12100
H271        H  0.99062811  0.38577652  0.58500348     0.12100
H272        H  0.01696881  0.42031106  0.66137670     0.12100
H273        H  0.98275082  0.53660260  0.52056294     0.25300
H274        H  0.01845398  0.56728600  0.59059432     0.25300
N275        N  0.47846123  0.09411889  0.50156621    -0.37400
N276        N  0.46150968  0.03971391  0.57516785    -0.58000
N277        N  0.38716933  0.09274771  0.59027900    -0.37400
N278        N  0.39948789  0.15375715  0.51167870    -0.58000
C279        C  0.52009156  0.08135226  0.51219407     0.26100
C280        C  0.48184006  0.13020418  0.47574240     0.26100
C281        C  0.39652637  0.07940129  0.63203657     0.26100
C282        C  0.36290908  0.12986243  0.59344695     0.26100
C283        C  0.49990388  0.02091214  0.56334153     0.34800
C284        C  0.44784157  0.01933948  0.61215491     0.34800
C285        C  0.40574831  0.15368389  0.46738008     0.34800
C286        C  0.35520654  0.15343718  0.51735232     0.34800
C287        C  0.55041334  0.10953706  0.49204513    -0.22700
C288        C  0.52602293  0.14017704  0.46850456    -0.22700
C289        C  0.37743742  0.10838205  0.66238233    -0.22700
C290        C  0.35557874  0.14006926  0.63774290    -0.22700
C291        C  0.50925967  0.98534228  0.59103144    -0.23800
C292        C  0.47590523  0.98423425  0.62211836    -0.23800
C293        C  0.36554310  0.15738375  0.44473516    -0.23800
C294        C  0.33310215  0.15711452  0.47680674    -0.23800
C295        C  0.53115976  0.04399561  0.53815980    -0.19100
C296        C  0.44685161  0.14347105  0.44842160    -0.19100
C297        C  0.33590218  0.14332720  0.55833242    -0.19100
C298        C  0.42085692  0.04110249  0.64298033    -0.19100
H299        H  0.58632508  0.10721364  0.49256507     0.13800
H300        H  0.53919848  0.16536201  0.44673005     0.13800
H301        H  0.37773190  0.10601596  0.69839092     0.13800
H302        H  0.33461261  0.16604123  0.65077412     0.13800
H303        H  0.53937144  0.96574689  0.59203518     0.12100
H304        H  0.47556504  0.96380545  0.65172419     0.12100
H305        H  0.36011885  0.15689563  0.40901535     0.12100
H306        H  0.29755290  0.15639531  0.47091051     0.12100
H307        H  0.44911185  0.07641056  0.50622679     0.25300
H308        H  0.39145317  0.07467415  0.56084267     0.25300
N309        N  0.49337506  0.51153978  0.95370290    -0.37400
N310        N  0.50253303  0.59205229  0.01264879    -0.58000
N311        N  0.42446047  0.57439908  0.05987507    -0.37400
N312        N  0.41359017  0.49377598  0.01421210    -0.58000
C313        C  0.53737329  0.51976182  0.95371392     0.26100
C314        C  0.48872184  0.46724072  0.95383004     0.26100
C315        C  0.43841670  0.61030461  0.08215990     0.26100
C316        C  0.38990327  0.55749755  0.08209380     0.26100
C317        C  0.52896638  0.59591310  0.97708286     0.34800
C318        C  0.49311879  0.63318159  0.02632792     0.34800
C319        C  0.41188765  0.47003737  0.97642493     0.34800
C320        C  0.37123688  0.50218565  0.02537538     0.34800
C321        C  0.56080081  0.48052596  0.94877838    -0.22700
C322        C  0.52978847  0.44705986  0.94893263    -0.22700
C323        C  0.41334240  0.61579583  0.12037200    -0.22700
C324        C  0.38239945  0.58215972  0.12032007    -0.22700
C325        C  0.53846933  0.63999235  0.96924145    -0.23800
C326        C  0.51516490  0.66387814  0.00028102    -0.23800
C327        C  0.36825415  0.46101604  0.96466684    -0.23800
C328        C  0.34221117  0.48182175  0.99566984    -0.23800
C329        C  0.55612075  0.56086019  0.96505358    -0.19100
C330        C  0.44851008  0.44567955  0.96288931    -0.19100
C331        C  0.35928178  0.52912129  0.06154703    -0.19100
C332        C  0.46534415  0.64249820  0.06260188    -0.19100
H333        H  0.59655291  0.47632549  0.94849301     0.13800
H334        H  0.53684070  0.41198539  0.94846224     0.13800
H335        H  0.41467430  0.64322244  0.14352976     0.13800
H336        H  0.35507613  0.57871145  0.14332564     0.13800
H337        H  0.56130386  0.65334401  0.94506406     0.12100
H338        H  0.51536730  0.69946173  0.00394951     0.12100
H339        H  0.35649548  0.44078886  0.93729084     0.12100
H340        H  0.30623525  0.48188067  0.99626310     0.12100
H341        H  0.46798679  0.53476407  0.95747017     0.25300
H342        H  0.43029693  0.56870877  0.02625320     0.25300
C343        C  0.28751636  0.51921596  0.10066288    -0.14200
C344        C  0.31235892  0.53924858  0.06718842     0.08000
C345        C  0.29211462  0.56735200  0.03599521    -0.14200
C346        C  0.24648446  0.57311132  0.03626507    -0.14200
C347        C  0.22108467  0.55174094  0.06854324     0.08000
C348        C  0.24175462  0.52587876  0.10164686    -0.14200
H349        H  0.30327678  0.49760753  0.12484718     0.11900
H350        H  0.31156604  0.58308310  0.01021698     0.11900
H351        H  0.23093872  0.59346258  0.01083937     0.11900
H352        H  0.22229651  0.50914378  0.12674769     0.11900
C353        C  0.64416286  0.53508307  0.05121694    -0.14200
C354        C  0.67753832  0.56407852  0.03811472     0.08000
C355        C  0.66992287  0.59413343  0.00315261    -0.14200
C356        C  0.63134195  0.59172128  0.97792901    -0.14200
C357        C  0.59885992  0.56087655  0.98895710     0.08000
C358        C  0.60441924  0.53413730  0.02714642    -0.14200
H359        H  0.64995414  0.51134532  0.07764768     0.11900
H360        H  0.69589151  0.61656376  0.99260424     0.11900
H361        H  0.62736511  0.61315597  0.94931769     0.11900
H362        H  0.57845021  0.51165072  0.03743744     0.11900
C363        C  0.90443789  0.59619461  0.34699013    -0.14200
C364        C  0.94294835  0.57933143  0.32689529     0.08000
C365        C  0.98317195  0.57808334  0.35074589    -0.14200
C366        C  0.98400999  0.58945485  0.39526138    -0.14200
C367        C  0.94472472  0.60217467  0.41631574     0.08000
C368        C  0.90548397  0.60812052  0.39174959    -0.14200
H369        H  0.87344497  0.59897273  0.32855481     0.11900
H370        H  0.01359665  0.56635194  0.33565193     0.11900
H371        H  0.01441946  0.58447660  0.41426160     0.11900
H372        H  0.87504102  0.61796768  0.40810178     0.11900
C373        C  0.00560252  0.49549107  0.78294243    -0.14200
C374        C  0.96248943  0.51012951  0.79378537     0.08000
C375        C  0.92861890  0.50923599  0.76166632    -0.14200
C376        C  0.93980558  0.50140931  0.71749105    -0.14200
C377        C  0.98473692  0.49571441  0.70621806     0.08000
C378        C  0.01685361  0.48876953  0.73895995    -0.14200
H379        H  0.03177219  0.49328107  0.80789015     0.11900
H380        H  0.89491262  0.51872663  0.76983490     0.11900
H381        H  0.91486961  0.50643220  0.69171028     0.11900
H382        H  0.05140285  0.48379999  0.73024313     0.11900
C383        C  0.46659879  0.34945378  0.04047774    -0.14200
C384        C  0.43588851  0.31938796  0.02284838     0.08000
C385        C  0.41098040  0.33051521  0.98461583    -0.14200
C386        C  0.41818083  0.37003795  0.96277669    -0.14200
C387        C  0.44881332  0.40024096  0.97996621     0.08000
C388        C  0.47257738  0.39013773  0.01939400    -0.14200
H389        H  0.48699492  0.34082125  0.06910340     0.11900
H390        H  0.38758684  0.30724558  0.97010560     0.11900
H391        H  0.39936862  0.37728190  0.93275760     0.11900
H392        H  0.49533713  0.41392824  0.03396330     0.11900
C393        C  0.47973146  0.71269800  0.10273155    -0.14200
C394        C  0.45515901  0.68860436  0.07139253     0.08000
C395        C  0.42515226  0.70966719  0.04253118    -0.14200
C396        C  0.42210894  0.75525623  0.04258321    -0.14200
C397        C  0.44821226  0.77979257  0.07233555     0.08000
C398        C  0.47578494  0.75850358  0.10362060    -0.14200
H399        H  0.50324229  0.69631854  0.12472310     0.11900
H400        H  0.40637099  0.69087800  0.01804688     0.11900
H401        H  0.40035778  0.77143167  0.01867177     0.11900
H402        H  0.49604605  0.77738802  0.12678646     0.11900
C403        C  0.42801717  0.06252355  0.35497535    -0.14200
C404        C  0.45603116  0.08002809  0.32263378     0.08000
C405        C  0.48208884  0.11749803  0.33227478    -0.14200
C406        C  0.47757252  0.13947071  0.37245367    -0.14200
C407        C  0.44793626  0.12347819  0.40402231     0.08000
C408        C  0.42438116  0.08399807  0.39589634    -0.14200
H409        H  0.40728318  0.03412925  0.34772198     0.11900
H410        H  0.50385703  0.13147087  0.30732682     0.11900
H411        H  0.49677948  0.16910831  0.37870538     0.11900
H412        H  0.40279555  0.07026803  0.42109067     0.11900
C413        C  0.47110815  0.05771280  0.75505880    -0.14200
C414        C  0.44361767  0.03136474  0.78119595     0.08000
C415        C  0.41064170  0.00475597  0.76159805    -0.14200
C416        C  0.40369913  0.00637861  0.71572991    -0.14200
C417        C  0.43053014  0.03377462  0.68994533     0.08000
C418        C  0.46493199  0.05847288  0.70936558    -0.14200
H419        H  0.49654449  0.07833785  0.77014254     0.11900
H420        H  0.38897396  0.98469429  0.78197392     0.11900
H421        H  0.37685269  0.98766131  0.70060236     0.11900
H422        H  0.48550291  0.07986886  0.68920743     0.11900
C423        C  0.60251525  0.00367663  0.52971736    -0.14200
C424        C  0.57797452  0.03761927  0.54929615     0.08000
C425        C  0.59866634  0.06904204  0.57677311    -0.14200
C426        C  0.64448145  0.06919705  0.58116722    -0.14200
C427        C  0.66952540  0.03692617  0.55940474     0.08000
C428        C  0.64845326  0.00298803  0.53528949    -0.14200
H429        H  0.58640226  0.97917892  0.50879743     0.11900
H430        H  0.57945043  0.09506152  0.59235003     0.11900
H431        H  0.66043963  0.09510451  0.60042584     0.11900
H432        H  0.66768617  0.97769753  0.51859259     0.11900
C433        C  0.24441333  0.06025365  0.54159690    -0.14200
C434        C  0.21237778  0.07738480  0.57025467     0.08000
C435        C  0.22162830  0.11536124  0.59576305    -0.14200
C436        C  0.26064935  0.13853692  0.58955840    -0.14200
C437        C  0.29185421  0.12296515  0.55927616     0.08000
C438        C  0.28443967  0.08280791  0.53652891    -0.14200
H439        H  0.23743736  0.03141252  0.52131131     0.11900
H440        H  0.19690189  0.12905401  0.61800753     0.11900
H441        H  0.26647709  0.16861081  0.60828756     0.11900
H442        H  0.30952178  0.06929962  0.51463749     0.11900
C443        C  0.93095929  0.75591599  0.58719479    -0.14200
C444        C  0.96446800  0.78782035  0.58690935     0.08000
C445        C  0.00761285  0.77698410  0.60209506    -0.14200
C446        C  0.01852061  0.73388194  0.61250346    -0.14200
C447        C  0.98644972  0.70132421  0.60737334     0.08000
C448        C  0.94201573  0.71248705  0.59753412    -0.14200
H449        H  0.89735380  0.76386447  0.57668770     0.11900
H450        H  0.03381724  0.80136465  0.60339575     0.11900
H451        H  0.05284805  0.72530825  0.61959890     0.11900
H452        H  0.91720663  0.68687778  0.59310846     0.11900
C453        C  0.89586125  0.34519511  0.54248019    -0.14200
C454        C  0.92858674  0.31811614  0.52388264     0.08000
C455        C  0.96165493  0.33592608  0.49659925    -0.14200
C456        C  0.96530038  0.38125116  0.49245279    -0.14200
C457        C  0.93614920  0.40831108  0.51599971     0.08000
C458        C  0.89985037  0.39062727  0.53874023    -0.14200
H459        H  0.86980783  0.33152905  0.56304410     0.11900
H460        H  0.98630878  0.31496070  0.48101129     0.11900
H461        H  0.99351152  0.39514751  0.47513776     0.11900
H462        H  0.87762846  0.41185876  0.55731981     0.11900
C463        C  0.15977440  0.21975649  0.39748989    -0.14200
C464        C  0.13524998  0.24382628  0.36532997     0.08000
C465        C  0.08883477  0.24723357  0.37159960    -0.14200
C466        C  0.06804418  0.22863869  0.40900697    -0.14200
C467        C  0.09259664  0.20501473  0.44123087     0.08000
C468        C  0.13876673  0.20044094  0.43460674    -0.14200
H469        H  0.19548197  0.21655564  0.39459090     0.11900
H470        H  0.06811858  0.26410048  0.34736107     0.11900
H471        H  0.03240753  0.23236062  0.41239604     0.11900
H472        H  0.15891126  0.18255301  0.45864174     0.11900
C473        C  0.11493321  0.40056504  0.28125691    -0.14200
C474        C  0.13948362  0.37076522  0.25457023     0.08000
C475        C  0.14306259  0.38071121  0.20883051    -0.14200
C476        C  0.12362999  0.41891092  0.19065893    -0.14200
C477        C  0.09897074  0.44840468  0.21717604     0.08000
C478        C  0.09459561  0.43848576  0.26274697    -0.14200
H479        H  0.11167891  0.39503699  0.31670075     0.11900
H480        H  0.16023610  0.35852482  0.18648781     0.11900
H481        H  0.12724670  0.42489189  0.15527223     0.11900
H482        H  0.07601399  0.46040436  0.28426001     0.11900
C483        C  0.28723298  0.22136399  0.26873471    -0.14200
C484        C  0.25718733  0.24956904  0.24609103     0.08000
C485        C  0.26605254  0.25822240  0.20061555    -0.14200
C486        C  0.30329623  0.23990908  0.17899110    -0.14200
C487        C  0.33283875  0.21142934  0.20158962     0.08000
C488        C  0.32403557  0.20243689  0.24684803    -0.14200
H489        H  0.28280813  0.21411053  0.30372621     0.11900
H490        H  0.24373960  0.27860159  0.18103140     0.11900
H491        H  0.30842886  0.24742096  0.14411614     0.11900
H492        H  0.34598083  0.18092890  0.26569990     0.11900
C493        C  0.10751867  0.27921979  0.70537615    -0.14200
C494        C  0.13406433  0.25304500  0.73452020     0.08000
C495        C  0.13657786  0.20750032  0.72469160    -0.14200
C496        C  0.11505361  0.18923747  0.68731579    -0.14200
C497        C  0.08875403  0.21514284  0.65827790     0.08000
C498        C  0.08489888  0.26050333  0.66819293    -0.14200
H499        H  0.10457096  0.31444335  0.71062190     0.11900
H500        H  0.15461213  0.18509050  0.74626924     0.11900
H501        H  0.11862670  0.15407603  0.68157742     0.11900
H502        H  0.06517520  0.28171623  0.64672695     0.11900
C503        C  0.15329798  0.43166940  0.91155880    -0.14200
C504        C  0.10791911  0.44258021  0.90724316     0.08000
C505        C  0.08149178  0.41525852  0.87967460    -0.14200
C506        C  0.09932658  0.37831772  0.85763635    -0.14200
C507        C  0.14488469  0.36733922  0.86104603     0.08000
C508        C  0.17153946  0.39504573  0.88854094    -0.14200
H509        H  0.17494427  0.45191843  0.93209625     0.11900
H510        H  0.04632147  0.42200309  0.87554412     0.11900
H511        H  0.07662875  0.35797940  0.83851677     0.11900
H512        H  0.20684388  0.38907270  0.89200209     0.11900
C513        C  0.28753571  0.21513261  0.82457306    -0.14200
C514        C  0.25875527  0.24096343  0.85140058     0.08000
C515        C  0.26846105  0.24223750  0.89752190    -0.14200
C516        C  0.30556463  0.22011789  0.91568302    -0.14200
C517        C  0.33421437  0.19461582  0.88894743     0.08000
C518        C  0.32423360  0.19197347  0.84309709    -0.14200
H519        H  0.28250823  0.21329638  0.78889311     0.11900
H520        H  0.24713441  0.25994908  0.92024429     0.11900
H521        H  0.31158100  0.22268392  0.95124766     0.11900
H522        H  0.34552919  0.17301118  0.82128385     0.11900
C523        C  0.74690023  0.89762505  0.73729306    -0.14200
C524        C  0.75371058  0.85225491  0.74638405     0.08000
C525        C  0.78148105  0.82871211  0.71676505    -0.14200
C526        C  0.80215696  0.84966153  0.68050971    -0.14200
C527        C  0.79493834  0.89470625  0.67147806     0.08000
C528        C  0.76666748  0.91825915  0.70026714    -0.14200
H529        H  0.72683230  0.91778880  0.75909279     0.11900
H530        H  0.78702169  0.79365285  0.72091771     0.11900
H531        H  0.82318449  0.83019943  0.65886733     0.11900
H532        H  0.76039481  0.95306208  0.69463035     0.11900
C533        C  0.78320635  0.70038979  0.83507960    -0.14200
C534        C  0.75454283  0.72740203  0.86082323     0.08000
C535        C  0.74733354  0.71424445  0.90529511    -0.14200
C536        C  0.76728152  0.67604809  0.92300409    -0.14200
C537        C  0.79622960  0.64956727  0.89753883     0.08000
C538        C  0.80407067  0.66252710  0.85327215    -0.14200
H539        H  0.78937778  0.70792377  0.80045491     0.11900
H540        H  0.72695394  0.73379612  0.92732665     0.11900
H541        H  0.76055376  0.66779263  0.95742116     0.11900
H542        H  0.82597174  0.64313780  0.83246446     0.11900
C543        C  0.62671697  0.89271713  0.86569555    -0.14200
C544        C  0.63269927  0.84642003  0.86541909     0.08000
C545        C  0.60007953  0.82080764  0.88726928    -0.14200
C546        C  0.56318175  0.84075581  0.90833815    -0.14200
C547        C  0.55709846  0.88693437  0.90760500     0.08000
C548        C  0.58951855  0.91245345  0.88588679    -0.14200
H549        H  0.65118895  0.91414098  0.85070738     0.11900
H550        H  0.60253806  0.78514660  0.88764158     0.11900
H551        H  0.53884680  0.81991209  0.92440604     0.11900
H552        H  0.58646263  0.94810618  0.88504869     0.11900
C553        C  0.78717364  0.25001128  0.66531264    -0.14200
C554        C  0.78270177  0.20436166  0.65719239     0.08000
C555        C  0.76022803  0.17880378  0.68896379    -0.14200
C556        C  0.74321230  0.19801527  0.72787616    -0.14200
C557        C  0.74696410  0.24381859  0.73608560     0.08000
C558        C  0.76922434  0.26951768  0.70392734    -0.14200
H559        H  0.80428713  0.27076437  0.64158345     0.11900
H560        H  0.75682715  0.14346190  0.68436704     0.11900
H561        H  0.72771532  0.17648726  0.75196995     0.11900
H562        H  0.77248172  0.30486631  0.70820622     0.11900
C563        C  0.72949088  0.38716156  0.89036885    -0.14200
C564        C  0.75323531  0.35825733  0.86203097     0.08000
C565        C  0.79859570  0.36835465  0.85495582    -0.14200
C566        C  0.81893592  0.40559306  0.87467557    -0.14200
C567        C  0.79526020  0.43398041  0.90323160     0.08000
C568        C  0.75016744  0.42397128  0.91083047    -0.14200
H569        H  0.69448840  0.38198960  0.89643640     0.11900
H570        H  0.81916686  0.34716798  0.83468954     0.11900
H571        H  0.85372336  0.41173368  0.86799587     0.11900
H572        H  0.73049973  0.44503449  0.93223439     0.11900
C573        C  0.58309741  0.17362958  0.86695005    -0.14200
C574        C  0.55231267  0.19772071  0.89241631     0.08000
C575        C  0.56140933  0.24283999  0.90013342    -0.14200
C576        C  0.59968107  0.26324644  0.88270360    -0.14200
C577        C  0.63080713  0.23918259  0.85740893     0.08000
C578        C  0.62177853  0.19379893  0.85020855    -0.14200
H579        H  0.57784485  0.13874664  0.86080671     0.11900
H580        H  0.53859991  0.26266520  0.91950501     0.11900
H581        H  0.60441757  0.29819924  0.88864784     0.11900
H582        H  0.64495809  0.17331588  0.83207601     0.11900
C583        C  0.14785136  0.90537322  0.73873676    -0.14200
C584        C  0.14286810  0.85926007  0.74489462     0.08000
C585        C  0.11860759  0.83601878  0.71199476    -0.14200
C586        C  0.09979598  0.85792277  0.67495339    -0.14200
C587        C  0.10492463  0.90381073  0.66884102     0.08000
C588        C  0.12959286  0.92712919  0.70121991    -0.14200
H589        H  0.16528912  0.92513766  0.76330965     0.11900
H590        H  0.11453282  0.80058093  0.71439204     0.11900
H591        H  0.08155527  0.83865576  0.65065470     0.11900
H592        H  0.13397749  0.96249984  0.69809369     0.11900
C593        C  0.11405405  0.70511098  0.83719782    -0.14200
C594        C  0.14079238  0.73492531  0.86189870     0.08000
C595        C  0.14716258  0.72559283  0.90767911    -0.14200
C596        C  0.12891554  0.68773670  0.92755819    -0.14200
C597        C  0.10247764  0.65795381  0.90294761     0.08000
C598        C  0.09493877  0.66750805  0.85746167    -0.14200
H599        H  0.10836196  0.71028851  0.80192458     0.11900
H600        H  0.16593474  0.74787754  0.92881024     0.11900
H601        H  0.13495489  0.68223094  0.96276346     0.11900
H602        H  0.07475522  0.64550370  0.83728051     0.11900
C603        C  0.29828282  0.86927979  0.83748258    -0.14200
C604        C  0.26510424  0.84829143  0.86280618     0.08000
C605        C  0.27170078  0.84582269  0.90941048    -0.14200
C606        C  0.30979507  0.86391028  0.92991031    -0.14200
C607        C  0.34225746  0.88576077  0.90463643     0.08000
C608        C  0.33600984  0.88800573  0.85809226    -0.14200
H609        H  0.29525619  0.87123014  0.80156052     0.11900
H610        H  0.24682749  0.83080570  0.93041137     0.11900
H611        H  0.31316288  0.86196232  0.96583323     0.11900
H612        H  0.36044596  0.90427645  0.83747494     0.11900
C613        C  0.09909037  0.85592506  0.38632104    -0.14200
C614        C  0.14484426  0.86036891  0.37703450     0.08000
C615        C  0.17047781  0.88586952  0.40737985    -0.14200
C616        C  0.15103332  0.90663412  0.44462412    -0.14200
C617        C  0.10544827  0.90182897  0.45369095     0.08000
C618        C  0.07995433  0.87580286  0.42406784    -0.14200
H619        H  0.07742819  0.83782656  0.36390138     0.11900
H620        H  0.20589346  0.88969194  0.40288385     0.11900
H621        H  0.17191758  0.92607844  0.46670211     0.11900
H622        H  0.04465026  0.87156831  0.42946781     0.11900
C623        C  0.07650104  0.69228384  0.24463338    -0.14200
C624        C  0.09960872  0.66514446  0.21442816     0.08000
C625        C  0.14372178  0.67718485  0.20441541    -0.14200
C626        C  0.16403361  0.71461582  0.22405806    -0.14200
C627        C  0.14089575  0.74235440  0.25405294     0.08000
C628        C  0.09644335  0.73022930  0.26358802    -0.14200
H629        H  0.04243517  0.68465861  0.25315224     0.11900
H630        H  0.16296977  0.65729714  0.18154243     0.11900
H631        H  0.19834369  0.72113381  0.21590781     0.11900
H632        H  0.07619123  0.75036319  0.28520799     0.11900
C633        C  0.31128085  0.92744265  0.24436911    -0.14200
C634        C  0.34092526  0.90272766  0.21821060     0.08000
C635        C  0.33051519  0.85790492  0.21050159    -0.14200
C636        C  0.29210623  0.83839717  0.22869980    -0.14200
C637        C  0.26190405  0.86314264  0.25461223     0.08000
C638        C  0.27233333  0.90827394  0.26168122    -0.14200
H639        H  0.31751077  0.96217453  0.25045653     0.11900
H640        H  0.35238124  0.83761385  0.19052752     0.11900
H641        H  0.28659806  0.80356688  0.22276990     0.11900
H642        H  0.25007845  0.92953856  0.27999016     0.11900
C643        C  0.79748431  0.84340215  0.38810046    -0.14200
C644        C  0.75213193  0.85081797  0.37768287     0.08000
C645        C  0.72736689  0.87639334  0.40812609    -0.14200
C646        C  0.74731147  0.89489823  0.44636195    -0.14200
C647        C  0.79257058  0.88774593  0.45638169     0.08000
C648        C  0.81720876  0.86120047  0.42694472    -0.14200
H649        H  0.81837334  0.82479349  0.36565781     0.11900
H650        H  0.69225143  0.88220858  0.40276795     0.11900
H651        H  0.72707496  0.91493959  0.46823559     0.11900
H652        H  0.85224659  0.85534763  0.43314257     0.11900
C653        C  0.74370519  0.67410246  0.19885051    -0.14200
C654        C  0.78734996  0.66023813  0.20900705     0.08000
C655        C  0.81140897  0.68504565  0.24075624    -0.14200
C656        C  0.79300719  0.72270292  0.26105049    -0.14200
C657        C  0.74909251  0.73676853  0.25151653     0.08000
C658        C  0.72475140  0.71128244  0.22005707    -0.14200
H659        H  0.72386948  0.65583397  0.17485341     0.11900
H660        H  0.84521022  0.67588534  0.24942136     0.11900
H661        H  0.81413216  0.74114240  0.28363309     0.11900
H662        H  0.69066825  0.71945165  0.21186468     0.11900
C663        C  0.60164601  0.83843460  0.23230666    -0.14200
C664        C  0.63512863  0.86287268  0.25434821     0.08000
C665        C  0.62873672  0.90908090  0.25794403    -0.14200
C666        C  0.59035581  0.92982148  0.24026768    -0.14200
C667        C  0.55738727  0.90520052  0.21776632     0.08000
C668        C  0.56380448  0.85920484  0.21408631    -0.14200
H669        H  0.60425869  0.80287304  0.22952130     0.11900
H670        H  0.65371544  0.92956035  0.27383928     0.11900
H671        H  0.58701231  0.96532863  0.24327233     0.11900
H672        H  0.53916853  0.83896663  0.19726169     0.11900
C673        C  0.76076436  0.26691925  0.40100676    -0.14200
C674        C  0.73866583  0.24343227  0.36682931     0.08000
C675        C  0.73476323  0.19707128  0.37219605    -0.14200
C676        C  0.75269198  0.17521797  0.40989323    -0.14200
C677        C  0.77593653  0.19880792  0.44309262     0.08000
C678        C  0.77935950  0.24500898  0.43809076    -0.14200
H679        H  0.76369885  0.30250337  0.39938617     0.11900
H680        H  0.71876072  0.17724198  0.34669666     0.11900
H681        H  0.74969686  0.13964469  0.41227560     0.11900
H682        H  0.79657344  0.26446502  0.46315129     0.11900
C683        C  0.79135266  0.37753617  0.25750568    -0.14200
C684        C  0.74560692  0.36855854  0.25105192     0.08000
C685        C  0.72084981  0.39977300  0.22599173    -0.14200
C686        C  0.74106458  0.43731987  0.20720446    -0.14200
C687        C  0.78665910  0.44601756  0.21361506     0.08000
C688        C  0.81133653  0.41572489  0.23953956    -0.14200
H689        H  0.81233906  0.35460957  0.27560585     0.11900
H690        H  0.68545868  0.39562536  0.22091789     0.11900
H691        H  0.72073272  0.45986146  0.18777901     0.11900
H692        H  0.84660721  0.42085105  0.24489134     0.11900
C693        C  0.59259723  0.27867556  0.21971046    -0.14200
C694        C  0.62411924  0.25161692  0.24183858     0.08000
C695        C  0.61676952  0.20566129  0.24157017    -0.14200
C696        C  0.57911977  0.18748550  0.22079657    -0.14200
C697        C  0.54779197  0.21439851  0.19866932     0.08000
C698        C  0.55514210  0.26027126  0.19808386    -0.14200
H699        H  0.59646330  0.31422279  0.21959930     0.11900
H700        H  0.64045156  0.18337747  0.25702248     0.11900
H701        H  0.57487590  0.15195059  0.22149851     0.11900
H702        H  0.53151672  0.28196786  0.18165792     0.11900
loop_ 
_geom_bond_atom_site_label_1 
_geom_bond_atom_site_label_2 
_geom_bond_distance 
_geom_bond_site_symmetry_2 
_ccdc_geom_bond_type 
C1            C2   1.422       .  A
C1            C6   1.417       .  A
C1          C684   1.525       .  S
C2            C3   1.422       .  A
C2            H7   1.080       .  S
C3            C4   1.411       .  A
C3          C674   1.520       .  S
C4            C5   1.413       .  A
C4            H8   1.081       .  S
C5            C6   1.412       .  A
C5          C694   1.510       .  S
C6            H9   1.081       .  S
C10          C11   1.420       .  A
C10          C15   1.420       .  A
C10         C657   1.528       .  S
C11          C12   1.416       .  A
C11          H16   1.079       .  S
C12          C13   1.415       .  A
C12         C644   1.520       .  S
C13          C14   1.413       .  A
C13          H17   1.080       .  S
C14          C15   1.418       .  A
C14         C664   1.518       .  S
C15          H18   1.080       .  S
C19          C20   1.422       .  A
C19          C24   1.416       .  A
C19         C637   1.527       .  S
C20          C21   1.424       .  A
C20          H25   1.079       .  S
C21          C22   1.421       .  A
C21         C627   1.535       .  S
C22          C23   1.418       .  A
C22          H26   1.079       .  S
C23          C24   1.414       .  A
C23         C614   1.524       .  S
C24          H27   1.078       .  S
C28          C29   1.412       .  A
C28          C33   1.411       .  A
C28         C604   1.512       .  S
C29          C30   1.415       .  A
C29          H34   1.081       .  S
C30          C31   1.423       .  A
C30         C584   1.521       .  S
C31          C32   1.421       .  A
C31          H35   1.081       .  S
C32          C33   1.415       .  A
C32         C594   1.523       .  S
C33          H36   1.081       .  S
C37          C38   1.415       .  A
C37          C42   1.411       .  A
C37         C557   1.515       .  S
C38          C39   1.421       .  A
C38          H43   1.079       .  S
C39          C40   1.424       .  A
C39         C564   1.530       .  S
C40          C41   1.421       .  A
C40          H44   1.080       .  S
C41          C42   1.411       .  A
C41         C577   1.522       .  S
C42          H45   1.081       .  S
C46          C47   1.418       .  A
C46          C51   1.416       .  A
C46         C524   1.524       .  S
C47          C48   1.418       .  A
C47          H52   1.080       .  S
C48          C49   1.417       .  A
C48         C544   1.524       .  S
C49          C50   1.422       .  A
C49          H53   1.079       .  S
C50          C51   1.416       .  A
C50         C534   1.526       .  S
C51          H54   1.079       .  S
C55          C56   1.421       .  A
C55          C60   1.417       .  A
C55         C514   1.530       .  S
C56          C57   1.419       .  A
C56          H61   1.079       .  S
C57          C58   1.423       .  A
C57         C507   1.530       .  S
C58          C59   1.418       .  A
C58          H62   1.078       .  S
C59          C60   1.421       .  A
C59         C494   1.530       .  S
C60          H63   1.078       .  S
C64          C65   1.417       .  A
C64          C69   1.422       .  A
C64         C484   1.526       .  S
C65          C66   1.416       .  A
C65          H70   1.080       .  S
C66          C67   1.411       .  A
C66         C474   1.517       .  S
C67          C68   1.414       .  A
C67          H71   1.080       .  S
C68          C69   1.420       .  A
C68         C464   1.518       .  S
C69          H72   1.081       .  S
O73         Ti91   2.137       .  S
O73         Ti90   2.153   1_455  S
O74          C75   1.270       .  A
O74         Ti82   2.137       .  S
C75         C677   1.506       .  S
C75         O111   1.279       .  A
O76         C109   1.276       .  A
O76        Ti113   2.149       .  S
O77        Ti113   2.153       .  S
O77         Ti91   2.148       .  S
C78         C427   1.447       .  S
C78          O93   1.267       .  A
C78         O126   1.273       .  A
O79          C81   1.265       .  A
O79         Ti82   2.093       .  S
C80         C554   1.499       .  S
C80         O115   1.275       .  A
C80         O101   1.273       .  A
C81         C454   1.441       .  S
C81          O94   1.269       .  A
Ti82         O95   2.138       .  S
Ti82         O98   2.163       .  S
Ti82         O84   2.156       .  S
Ti82        O101   2.152       .  S
Ti83        O128   2.171   1_455  S
Ti83        O123   2.151   1_455  S
Ti83        O102   2.119       .  S
Ti83        O100   2.061   1_455  S
Ti83         O97   2.152       .  S
Ti83        O106   2.151       .  S
O84         Ti90   2.157       .  S
O85        Ti127   2.161   1_545  S
O85         Ti89   2.158       .  S
C86         C587   1.508       .  S
C86         O106   1.271       .  A
C86         O110   1.274       .  A
O87        Ti121   2.152       .  S
O87        Ti127   2.144       .  S
C88         C647   1.503       .  S
C88         O114   1.277       .  A
C88         O120   1.273       .  A
Ti89        O104   2.158       .  S
Ti89         O95   2.143       .  S
Ti89        O126   2.115       .  S
Ti89        O115   2.152       .  S
Ti89        O111   2.185       .  S
Ti90         O98   2.163       .  S
Ti90        O118   2.155   1_655  S
Ti90         O94   2.095       .  S
Ti90        O105   2.197   1_655  S
Ti91         O96   2.151       .  S
Ti91        O122   2.124       .  S
Ti91        O116   2.156       .  S
Ti91        O119   2.053       .  S
O92         C108   1.273       .  A
O92        Ti127   2.153       .  S
O93        Ti127   2.098   1_545  S
O96        Ti113   2.160       .  S
O97         C112   1.275       .  A
O99         C108   1.276       .  A
O99        Ti121   2.164       .  S
O100        C103   1.262       .  A
O102       Ti113   2.150   1_565  S
C103        C444   1.455       .  S
C103        O117   1.273       .  A
O104       Ti127   2.154   1_545  S
O105        C107   1.280       .  A
C107        C497   1.513       .  S
C107        O122   1.267       .  A
C108        C527   1.505       .  S
C109        C434   1.448       .  S
C109        O119   1.261       .  A
O110       Ti113   2.165   1_565  S
C112        C617   1.508       .  S
C112        O124   1.280       .  A
Ti113       O124   2.175   1_545  S
O114       Ti121   2.165       .  S
O116        C125   1.272       .  A
O117       Ti121   2.131       .  S
O118        C125   1.273       .  A
O120       Ti127   2.145       .  S
Ti121       O128   2.164       .  S
Ti121       O123   2.165       .  S
C125        C467   1.506       .  S
O129       Ti147   2.139       .  S
O129       Ti146   2.151   1_565  S
O130        C131   1.267       .  A
O130       Ti138   2.125       .  S
C131        C697   1.495       .  S
C131        O167   1.274       .  A
O132        C165   1.272       .  A
O132       Ti169   2.111       .  S
O133       Ti169   2.160       .  S
O133       Ti147   2.159       .  S
C134        C384   1.453       .  S
C134        O149   1.260       .  A
C134        O182   1.278       .  A
O135        C137   1.260       .  A
O135       Ti138   2.056       .  S
C136        C487   1.512       .  S
C136        O171   1.280       .  A
C136        O157   1.276       .  A
C137        C404   1.450       .  S
C137        O150   1.276       .  A
Ti138       O151   2.128       .  S
Ti138       O154   2.162       .  S
Ti138       O140   2.159       .  S
Ti138       O157   2.161       .  S
Ti139       O184   2.164   1_565  S
Ti139       O179   2.157   1_565  S
Ti139       O158   2.146       .  S
Ti139       O156   2.101       .  S
Ti139       O153   2.153       .  S
Ti139       O162   2.147       .  S
O140       Ti146   2.173       .  S
O141       Ti183   2.149   1_554  S
O141       Ti145   2.161       .  S
C142        C607   1.499       .  S
C142        O162   1.272       .  A
C142        O166   1.274       .  A
O143       Ti177   2.155       .  S
O143       Ti183   2.135       .  S
C144        C574   1.509       .  S
C144        O170   1.277       .  A
C144        O176   1.271       .  A
Ti145       O160   2.154       .  S
Ti145       O151   2.166       .  S
Ti145       O182   2.158       .  S
Ti145       O171   2.174       .  S
Ti145       O167   2.164       .  S
Ti146       O154   2.160       .  S
Ti146       O174   2.180   1_545  S
Ti146       O150   2.152       .  S
Ti146       O161   2.177   1_545  S
Ti147       O152   2.165       .  S
Ti147       O178   2.150       .  S
Ti147       O172   2.144       .  S
Ti147       O175   2.101       .  S
O148        C164   1.268       .  A
O148       Ti183   2.131       .  S
O149       Ti183   2.055   1_554  S
O152       Ti169   2.165       .  S
O153        C168   1.275       .  A
O155        C164   1.279       .  A
O155       Ti177   2.191       .  S
O156        C159   1.267   1_565  A
O158       Ti169   2.153   1_556  S
C159        C414   1.441       .  S
C159        O173   1.271       .  A
O160       Ti183   2.154   1_554  S
O161        C163   1.281       .  A
C163        C634   1.509       .  S
C163        O178   1.274       .  A
C164        C517   1.511       .  S
C165        C397   1.447       .  S
C165        O175   1.267       .  A
O166       Ti169   2.157   1_556  S
C168        C547   1.509       .  S
C168        O180   1.280       .  A
Ti169       O180   2.182   1_554  S
O170       Ti177   2.172       .  S
O172        C181   1.273       .  A
O173       Ti177   2.106       .  S
O174        C181   1.279       .  A
O176       Ti183   2.150       .  S
Ti177       O184   2.164       .  S
Ti177       O179   2.159       .  S
C181        C667   1.507       .  S
O185       Ti203   2.154       .  S
O185       Ti202   2.133   1_556  S
O186        C187   1.280       .  A
O186       Ti194   2.165       .  S
C187        C687   1.510       .  S
C187        O223   1.283       .  A
O188        C221   1.262       .  A
O188       Ti225   2.060   1_655  S
O189       Ti225   2.150   1_655  S
O189       Ti203   2.168       .  S
C190        C364   1.452       .  S
C190        O205   1.267       .  A
C190        O238   1.269       .  A
O191        C193   1.274       .  A
O191       Ti194   2.143       .  S
C192        C654   1.509       .  S
C192        O227   1.271       .  A
C192        O213   1.274       .  A
C193        C354   1.444       .  S
C193        O206   1.262       .  A
Ti194       O207   2.148       .  S
Ti194       O210   2.168       .  S
Ti194       O196   2.155       .  S
Ti194       O213   2.166       .  S
Ti195       O240   2.157       .  S
Ti195       O235   2.153       .  S
Ti195       O214   2.147   1_554  S
Ti195       O212   2.113       .  S
Ti195       O209   2.186   1_554  S
Ti195       O218   2.158   1_554  S
O196       Ti202   2.155       .  S
O197       Ti239   2.169       .  S
O197       Ti201   2.165       .  S
C198        C597   1.510       .  S
C198        O218   1.278       .  A
C198        O222   1.279       .  A
O199       Ti233   2.152       .  S
O199       Ti239   2.150   1_455  S
C200        C477   1.503       .  S
C200        O226   1.270       .  A
C200        O232   1.278       .  A
Ti201       O216   2.169       .  S
Ti201       O207   2.128       .  S
Ti201       O238   2.106       .  S
Ti201       O227   2.148       .  S
Ti201       O223   2.178       .  S
Ti202       O210   2.156       .  S
Ti202       O230   2.171   1_554  S
Ti202       O206   2.055       .  S
Ti202       O217   2.127   1_554  S
Ti203       O208   2.154       .  S
Ti203       O234   2.186       .  S
Ti203       O228   2.155       .  S
Ti203       O231   2.124       .  S
O204        C220   1.275       .  A
O204       Ti239   2.169   1_455  S
O205       Ti239   2.088       .  S
O208       Ti225   2.164   1_655  S
O209        C224   1.276       .  A
O211        C220   1.274       .  A
O211       Ti233   2.162       .  S
O212        C215   1.273       .  A
O214       Ti225   2.125       .  S
C215        C347   1.450       .  S
C215        O229   1.268       .  A
O216       Ti239   2.163       .  S
O217        C219   1.268       .  A
C219        C537   1.509       .  S
C219        O234   1.279       .  A
C220        C624   1.516       .  S
C221        C374   1.451       .  S
C221        O231   1.271       .  A
O222       Ti225   2.174       .  S
C224        C504   1.513       .  S
C224        O236   1.266       .  A
Ti225       O236   2.130       .  S
O226       Ti233   2.131       .  S
O228        C237   1.273       .  A
O229       Ti233   2.101       .  S
O230        C237   1.276       .  A
O232       Ti239   2.179   1_455  S
Ti233       O240   2.156       .  S
Ti233       O235   2.151       .  S
C237        C567   1.513       .  S
N241        C246   1.340       .  A
N241        C245   1.343       .  A
N241        H273   1.042       .  S
N242        C249   1.341       .  A
N242        C250   1.337   1_655  A
N243        C248   1.344       .  A
N243        C247   1.347       .  A
N243        H274   1.042       .  S
N244        C251   1.340       .  A
N244        C252   1.339   1_655  A
C245        C253   1.390       .  A
C245        C261   1.401       .  A
C246        C262   1.392       .  A
C246        C254   1.384       .  A
C247        C255   1.382   1_455  A
C247        C264   1.393       .  A
C248        C263   1.410   1_455  A
C248        C256   1.393   1_455  A
C249        C261   1.395       .  A
C249        C257   1.384       .  A
C250        C264   1.391       .  A
C250        C258   1.389       .  A
C251        C259   1.390       .  A
C251        C262   1.404       .  A
C252        C260   1.383       .  A
C252        C263   1.388   1_455  A
C253        C254   1.373       .  A
C253        H265   1.080       .  S
C254        H266   1.082       .  S
C255        C256   1.371       .  A
C255        H267   1.083       .  S
C256        H268   1.081       .  S
C257        C258   1.372   1_655  A
C257        H269   1.082       .  S
C258        H270   1.082       .  S
C259        C260   1.370   1_655  A
C259        H271   1.082       .  S
C260        H272   1.083       .  S
C261        C367   1.452       .  S
C262        C457   1.446       .  S
C263        C377   1.451       .  S
C264        C447   1.452   1_455  S
N275        C280   1.344       .  A
N275        C279   1.346       .  A
N275        H307   1.043       .  S
N276        C283   1.337       .  A
N276        C284   1.337       .  A
N277        C282   1.342       .  A
N277        C281   1.344       .  A
N277        H308   1.047       .  S
N278        C285   1.343       .  A
N278        C286   1.344       .  A
C279        C287   1.391       .  A
C279        C295   1.411       .  A
C280        C296   1.388       .  A
C280        C288   1.382       .  A
C281        C289   1.390       .  A
C281        C298   1.408       .  A
C282        C297   1.386       .  A
C282        C290   1.383       .  A
C283        C295   1.398       .  A
C283        C291   1.387   1_545  A
C284        C298   1.399       .  A
C284        C292   1.387   1_545  A
C285        C293   1.387       .  A
C285        C296   1.399       .  A
C286        C294   1.386       .  A
C286        C297   1.398       .  A
C287        C288   1.374       .  A
C287        H299   1.082       .  S
C288        H300   1.082       .  S
C289        C290   1.375       .  A
C289        H301   1.082       .  S
C290        H302   1.082       .  S
C291        C292   1.375       .  A
C291        H303   1.082       .  S
C292        H304   1.083       .  S
C293        C294   1.375       .  A
C293        H305   1.082       .  S
C294        H306   1.082       .  S
C295        C424   1.457       .  S
C296        C407   1.463       .  S
C297        C437   1.462       .  S
C298        C417   1.453       .  S
N309        C314   1.348       .  A
N309        C313   1.347       .  A
N309        H341   1.044       .  S
N310        C317   1.341   1_554  A
N310        C318   1.341       .  A
N311        C316   1.341       .  A
N311        C315   1.341       .  A
N311        H342   1.039       .  S
N312        C319   1.342   1_554  A
N312        C320   1.343       .  A
C313        C321   1.388       .  A
C313        C329   1.406       .  A
C314        C330   1.403       .  A
C314        C322   1.386       .  A
C315        C323   1.387       .  A
C315        C332   1.400       .  A
C316        C331   1.399       .  A
C316        C324   1.387       .  A
C317        C329   1.387       .  A
C317        C325   1.385       .  A
C318        C332   1.405       .  A
C318        C326   1.387       .  A
C319        C327   1.383       .  A
C319        C330   1.388       .  A
C320        C328   1.387   1_554  A
C320        C331   1.405       .  A
C321        C322   1.378       .  A
C321        H333   1.083       .  S
C322        H334   1.082       .  S
C323        C324   1.380       .  A
C323        H335   1.082       .  S
C324        H336   1.082       .  S
C325        C326   1.374   1_556  A
C325        H337   1.081       .  S
C326        H338   1.082       .  S
C327        C328   1.372       .  A
C327        H339   1.081       .  S
C328        H340   1.082       .  S
C329        C357   1.467       .  S
C330        C387   1.468       .  S
C331        C344   1.455       .  S
C332        C394   1.453       .  S
C343        C344   1.395       .  A
C343        C348   1.391       .  A
C343        H349   1.083       .  S
C344        C345   1.400       .  A
C345        C346   1.383       .  A
C345        H350   1.084       .  S
C346        C347   1.397       .  A
C346        H351   1.084       .  S
C347        C348   1.406       .  A
C348        H352   1.083       .  S
C353        C354   1.393       .  A
C353        C358   1.392       .  A
C353        H359   1.083       .  S
C354        C355   1.406       .  A
C355        C356   1.382   1_554  A
C355        H360   1.084   1_554  S
C356        C357   1.394       .  A
C356        H361   1.082       .  S
C357        C358   1.412   1_556  A
C358        H362   1.083       .  S
C363        C364   1.405       .  A
C363        C368   1.390       .  A
C363        H369   1.083       .  S
C364        C365   1.401       .  A
C365        C366   1.378       .  A
C365        H370   1.083   1_655  S
C366        C367   1.397       .  A
C366        H371   1.084   1_655  S
C367        C368   1.398       .  A
C368        H372   1.083       .  S
C373        C374   1.410   1_455  A
C373        C378   1.379       .  A
C373        H379   1.084       .  S
C374        C375   1.397       .  A
C375        C376   1.390       .  A
C375        H380   1.083       .  S
C376        C377   1.406       .  A
C376        H381   1.084       .  S
C377        C378   1.388   1_655  A
C378        H382   1.084       .  S
C383        C384   1.398       .  A
C383        C388   1.397       .  A
C383        H389   1.083       .  S
C384        C385   1.406   1_554  A
C385        C386   1.382       .  A
C385        H390   1.084       .  S
C386        C387   1.394       .  A
C386        H391   1.082       .  S
C387        C388   1.410   1_556  A
C388        H392   1.083       .  S
C393        C394   1.396       .  A
C393        C398   1.391       .  A
C393        H399   1.083       .  S
C394        C395   1.399       .  A
C395        C396   1.383       .  A
C395        H400   1.084       .  S
C396        C397   1.397       .  A
C396        H401   1.084       .  S
C397        C398   1.404       .  A
C398        H402   1.083       .  S
C403        C404   1.395       .  A
C403        C408   1.393       .  A
C403        H409   1.083       .  S
C404        C405   1.408       .  A
C405        C406   1.383       .  A
C405        H410   1.084       .  S
C406        C407   1.393       .  A
C406        H411   1.083       .  S
C407        C408   1.410       .  A
C408        H412   1.083       .  S
C413        C414   1.395       .  A
C413        C418   1.382       .  A
C413        H419   1.084       .  S
C414        C415   1.403       .  A
C415        C416   1.391       .  A
C415        H420   1.084   1_545  S
C416        C417   1.396       .  A
C416        H421   1.083   1_545  S
C417        C418   1.400       .  A
C418        H422   1.084       .  S
C423        C424   1.396       .  A
C423        C428   1.390       .  A
C423        H429   1.083   1_545  S
C424        C425   1.401       .  A
C425        C426   1.383       .  A
C425        H430   1.084       .  S
C426        C427   1.397       .  A
C426        H431   1.084       .  S
C427        C428   1.404       .  A
C428        H432   1.083   1_545  S
C433        C434   1.395       .  A
C433        C438   1.394       .  A
C433        H439   1.083       .  S
C434        C435   1.407       .  A
C435        C436   1.382       .  A
C435        H440   1.085       .  S
C436        C437   1.393       .  A
C436        H441   1.083       .  S
C437        C438   1.410       .  A
C438        H442   1.083       .  S
C443        C444   1.396       .  A
C443        C448   1.390       .  A
C443        H449   1.083       .  S
C444        C445   1.410   1_655  A
C445        C446   1.380       .  A
C445        H450   1.081       .  S
C446        C447   1.387   1_455  A
C446        H451   1.084       .  S
C447        C448   1.407       .  A
C448        H452   1.084       .  S
C453        C454   1.399       .  A
C453        C458   1.385       .  A
C453        H459   1.084       .  S
C454        C455   1.401       .  A
C455        C456   1.382       .  A
C455        H460   1.084       .  S
C456        C457   1.395       .  A
C456        H461   1.084       .  S
C457        C458   1.399       .  A
C458        H462   1.084       .  S
C463        C464   1.412       .  A
C463        C468   1.412       .  A
C463        H469   1.082       .  S
C464        C465   1.414       .  A
C465        C466   1.407       .  A
C465        H470   1.082       .  S
C466        C467   1.407       .  A
C466        H471   1.083       .  S
C467        C468   1.411       .  A
C468        H472   1.083       .  S
C473        C474   1.416       .  A
C473        C478   1.412       .  A
C473        H479   1.081       .  S
C474        C475   1.410       .  A
C475        C476   1.403       .  A
C475        H480   1.082       .  S
C476        C477   1.409       .  A
C476        H481   1.083       .  S
C477        C478   1.407       .  A
C478        H482   1.083       .  S
C483        C484   1.413       .  A
C483        C488   1.412       .  A
C483        H489   1.082       .  S
C484        C485   1.416       .  A
C485        C486   1.411       .  A
C485        H490   1.081       .  S
C486        C487   1.408       .  A
C486        H491   1.083       .  S
C487        C488   1.412       .  A
C488        H492   1.083       .  S
C493        C494   1.420       .  A
C493        C498   1.419       .  A
C493        H499   1.081       .  S
C494        C495   1.411       .  A
C495        C496   1.403       .  A
C495        H500   1.080       .  S
C496        C497   1.410       .  A
C496        H501   1.083       .  S
C497        C498   1.409       .  A
C498        H502   1.083       .  S
C503        C504   1.409       .  A
C503        C508   1.417       .  A
C503        H509   1.083       .  S
C504        C505   1.410       .  A
C505        C506   1.406       .  A
C505        H510   1.083       .  S
C506        C507   1.412       .  A
C506        H511   1.081       .  S
C507        C508   1.420       .  A
C508        H512   1.081       .  S
C513        C514   1.420       .  A
C513        C518   1.417       .  A
C513        H519   1.081       .  S
C514        C515   1.412       .  A
C515        C516   1.407       .  A
C515        H520   1.081       .  S
C516        C517   1.410       .  A
C516        H521   1.083       .  S
C517        C518   1.407       .  A
C518        H522   1.083       .  S
C523        C524   1.414       .  A
C523        C528   1.410       .  A
C523        H529   1.081       .  S
C524        C525   1.415       .  A
C525        C526   1.408       .  A
C525        H530   1.081       .  S
C526        C527   1.406       .  A
C526        H531   1.083       .  S
C527        C528   1.409       .  A
C528        H532   1.083       .  S
C533        C534   1.420       .  A
C533        C538   1.414       .  A
C533        H539   1.081       .  S
C534        C535   1.411       .  A
C535        C536   1.405       .  A
C535        H540   1.080       .  S
C536        C537   1.411       .  A
C536        H541   1.083       .  S
C537        C538   1.406       .  A
C538        H542   1.083       .  S
C543        C544   1.412       .  A
C543        C548   1.408       .  A
C543        H549   1.082       .  S
C544        C545   1.416       .  A
C545        C546   1.416       .  A
C545        H550   1.082       .  S
C546        C547   1.409       .  A
C546        H551   1.083       .  S
C547        C548   1.408       .  A
C548        H552   1.083       .  S
C553        C554   1.409       .  A
C553        C558   1.410       .  A
C553        H559   1.083       .  S
C554        C555   1.406       .  A
C555        C556   1.403       .  A
C555        H560   1.083       .  S
C556        C557   1.412       .  A
C556        H561   1.082       .  S
C557        C558   1.413       .  A
C558        H562   1.082       .  S
C563        C564   1.416       .  A
C563        C568   1.414       .  A
C563        H569   1.081       .  S
C564        C565   1.416       .  A
C565        C566   1.410       .  A
C565        H570   1.081       .  S
C566        C567   1.409       .  A
C566        H571   1.083       .  S
C567        C568   1.410       .  A
C568        H572   1.083       .  S
C573        C574   1.407       .  A
C573        C578   1.410       .  A
C573        H579   1.083       .  S
C574        C575   1.411       .  A
C575        C576   1.411       .  A
C575        H580   1.083       .  S
C576        C577   1.411       .  A
C576        H581   1.082       .  S
C577        C578   1.416       .  A
C578        H582   1.082       .  S
C583        C584   1.416       .  A
C583        C588   1.411       .  A
C583        H589   1.082       .  S
C584        C585   1.410       .  A
C585        C586   1.409       .  A
C585        H590   1.082       .  S
C586        C587   1.410       .  A
C586        H591   1.080       .  S
C587        C588   1.407       .  A
C588        H592   1.083       .  S
C593        C594   1.414       .  A
C593        C598   1.415       .  A
C593        H599   1.082       .  S
C594        C595   1.414       .  A
C595        C596   1.406       .  A
C595        H600   1.081       .  S
C596        C597   1.407       .  A
C596        H601   1.083       .  S
C597        C598   1.411       .  A
C598        H602   1.083       .  S
C603        C604   1.411       .  A
C603        C608   1.407       .  A
C603        H609   1.082       .  S
C604        C605   1.412       .  A
C605        C606   1.407       .  A
C605        H610   1.082       .  S
C606        C607   1.407       .  A
C606        H611   1.083       .  S
C607        C608   1.409       .  A
C608        H612   1.083       .  S
C613        C614   1.413       .  A
C613        C618   1.408       .  A
C613        H619   1.082       .  S
C614        C615   1.417       .  A
C615        C616   1.412       .  A
C615        H620   1.081       .  S
C616        C617   1.407       .  A
C616        H621   1.083       .  S
C617        C618   1.410       .  A
C618        H622   1.083       .  S
C623        C624   1.409       .  A
C623        C628   1.413       .  A
C623        H629   1.083       .  S
C624        C625   1.411       .  A
C625        C626   1.413       .  A
C625        H630   1.083       .  S
C626        C627   1.416       .  A
C626        H631   1.081       .  S
C627        C628   1.418       .  A
C628        H632   1.080       .  S
C633        C634   1.406       .  A
C633        C638   1.410       .  A
C633        H639   1.083       .  S
C634        C635   1.411       .  A
C635        C636   1.412       .  A
C635        H640   1.083       .  S
C636        C637   1.414       .  A
C636        H641   1.082       .  S
C637        C638   1.417       .  A
C638        H642   1.081       .  S
C643        C644   1.415       .  A
C643        C648   1.410       .  A
C643        H649   1.082       .  S
C644        C645   1.413       .  A
C645        C646   1.406       .  A
C645        H650   1.081       .  S
C646        C647   1.408       .  A
C646        H651   1.083       .  S
C647        C648   1.408       .  A
C648        H652   1.083       .  S
C653        C654   1.409       .  A
C653        C658   1.414       .  A
C653        H659   1.083       .  S
C654        C655   1.408       .  A
C655        C656   1.406       .  A
C655        H660   1.083       .  S
C656        C657   1.414       .  A
C656        H661   1.080       .  S
C657        C658   1.418       .  A
C658        H662   1.081       .  S
C663        C664   1.410       .  A
C663        C668   1.406       .  A
C663        H669   1.082       .  S
C664        C665   1.415       .  A
C665        C666   1.413       .  A
C665        H670   1.082       .  S
C666        C667   1.408       .  A
C666        H671   1.083       .  S
C667        C668   1.409       .  A
C668        H672   1.083       .  S
C673        C674   1.409       .  A
C673        C678   1.407       .  A
C673        H679   1.082       .  S
C674        C675   1.417       .  A
C675        C676   1.413       .  A
C675        H680   1.082       .  S
C676        C677   1.407       .  A
C676        H681   1.083       .  S
C677        C678   1.410       .  A
C678        H682   1.083       .  S
C683        C684   1.414       .  A
C683        C688   1.412       .  A
C683        H689   1.081       .  S
C684        C685   1.415       .  A
C685        C686   1.409       .  A
C685        H690   1.081       .  S
C686        C687   1.408       .  A
C686        H691   1.083       .  S
C687        C688   1.409       .  A
C688        H692   1.083       .  S
C693        C694   1.414       .  A
C693        C698   1.410       .  A
C693        H699   1.082       .  S
C694        C695   1.408       .  A
C695        C696   1.401       .  A
C695        H700   1.082       .  S
C696        C697   1.407       .  A
C696        H701   1.083       .  S
C697        C698   1.406       .  A
C698        H702   1.083       .  S
