geometry optimzed in LAMMPS
_audit_creation_date              2020-12-01 
_audit_creation_method            'lammps2cif' 
_symmetry_space_group_name_H-M    'P1' 
_symmetry_Int_Tables_number       1 
_symmetry_cell_setting            triclinic 
loop_ 
_symmetry_equiv_pos_as_xyz 
  x,y,z 
_cell_length_a                    23.54765305 
_cell_length_b                    23.36898909790576 
_cell_length_c                    46.54022929100852 
_cell_angle_alpha                 89.7134384029105 
_cell_angle_beta                  90.53173823653438 
_cell_angle_gamma                 88.08271905109576 
loop_ 
_atom_site_label 
_atom_site_type_symbol 
_atom_site_fract_x 
_atom_site_fract_y 
_atom_site_fract_z 
_atom_site_charge 
C1          C  0.84906348  0.70229700  0.30882439     0.82000
N2          N  0.87415787  0.67993378  0.33307165    -0.76300
C3          C  0.84983443  0.63586923  0.34718213     0.84400
N4          N  0.80069265  0.61416985  0.33688647    -0.76200
C5          C  0.77589908  0.63688065  0.31266407     0.84500
N6          N  0.80032934  0.68053740  0.29894810    -0.78000
C7          C  0.70762333  0.70106885  0.12033758     0.82000
N8          N  0.68549478  0.73125356  0.09758860    -0.76300
C9          C  0.70980721  0.78023284  0.08871581     0.84400
N10         N  0.75671385  0.79909103  0.10270490    -0.76200
C11         C  0.77893888  0.76891882  0.12555602     0.84500
N12         N  0.75368460  0.72077723  0.13441098    -0.78000
C13         C  0.36839339  0.71726773  0.33292365     0.82000
N14         N  0.31767675  0.74092460  0.32420826    -0.76300
C15         C  0.30031013  0.79360549  0.33341941     0.84400
N16         N  0.33432919  0.82308417  0.35134585    -0.76200
C17         C  0.38546519  0.80003579  0.35988993     0.84500
N18         N  0.40255558  0.74724965  0.35061467    -0.78000
C19         C  0.87125224  0.23311147  0.12039250     0.82000
N20         N  0.89344778  0.26180865  0.09796443    -0.76300
C21         C  0.86921519  0.31192477  0.08874821     0.84400
N22         N  0.82242276  0.33372741  0.10196330    -0.76200
C23         C  0.79938032  0.30557583  0.12440715     0.84500
N24         N  0.82390712  0.25500524  0.13373584    -0.78000
C25         C  0.18369586  0.84145179  0.28109473     0.44200
N26         N  0.15183699  0.90490092  0.25132267     0.03100
C27         C  0.89813904  0.05913106  0.25318251    -0.04700
H28         H  0.88024104  0.83612786  0.24276742     0.08600
C29         C  0.96772486  0.86443406  0.14277471    -0.05100
Co30       Co  0.04474114  0.96219926  0.27083247     0.74200
N31         N  0.94862034  0.89360615  0.24983052    -0.24300
Co32       Co  0.94167230  0.95635627  0.21735953     0.74100
C33         C  0.91432494  0.84029302  0.15170492     0.44300
N34         N  0.11099181  0.89753054  0.16731889     0.02700
N35         N  0.94474128  0.89535051  0.18496871     0.02900
N36         N  0.96328826  0.05962473  0.28925225    -0.45100
H37         H  0.10896313  0.85798502  0.31190634     0.08600
N38         N  0.98806511  0.89626054  0.27014386     0.03100
N39         N  0.93916215  0.01994299  0.18566053     0.02900
C40         C  0.91609991  0.09526118  0.16127167     0.44500
N41         N  0.15027218  0.90041280  0.18774404    -0.23700
C42         C  0.10500204  0.07312481  0.28679306    -0.04700
N43         N  0.19462522  0.86793851  0.25612329    -0.44800
N44         N  0.90103012  0.06274060  0.18370644    -0.45100
C45         C  0.15213894  0.10486170  0.27554948     0.44300
N46         N  0.97629282  0.02029057  0.26974851     0.03100
N47         N  0.14522249  0.02398969  0.18496069    -0.23800
N48         N  0.11354177  0.90451541  0.27176109    -0.24200
N49         N  0.10741187  0.02147131  0.16396190     0.02800
H50         H  0.22727355  0.06093350  0.18808089     0.08700
H51         H  0.99341521  0.08211855  0.13140104     0.08700
N52         N  0.93821550  0.01838287  0.24889843    -0.24300
N53         N  0.98313131  0.89812491  0.16459614    -0.23900
N54         N  0.14089756  0.03038653  0.24956033     0.03100
C55         C  0.94109319  0.82316888  0.28180209     0.44500
C56         C  0.18780037  0.85657596  0.18473315    -0.05200
N57         N  0.97896312  0.02234035  0.16585073    -0.23900
H58         H  0.98797680  0.86227997  0.12202651     0.08700
N59         N  0.98497602  0.85515929  0.28966483    -0.45100
H60         H  0.22459471  0.84755403  0.19828564     0.08700
C61         C  0.17293988  0.07398509  0.14720031     0.44400
C62         C  0.13038279  0.86613390  0.29191493    -0.04700
Co63       Co  0.14798115  0.96532101  0.21850156     0.73800
N64         N  0.11955713  0.85301619  0.15015407    -0.44800
C65         C  0.91525490  0.08656460  0.27958758     0.44600
N66         N  0.17255963  0.07597874  0.25248218    -0.44800
Co67       Co  0.04509570  0.95987903  0.16489326     0.73900
C68         C  0.96794657  0.06866831  0.14926664    -0.05200
C69         C  0.91663371  0.84848444  0.25534130    -0.04700
N70         N  0.10126146  0.02807026  0.26939750    -0.24300
N71         N  0.90249411  0.86193965  0.17792055    -0.45000
H72         H  0.86006976  0.06635090  0.24031414     0.08600
C73         C  0.18734036  0.05718519  0.17668641    -0.05100
Cl74       Cl  0.04488936  0.96086941  0.21781772    -0.48100
C75         C  0.16733269  0.82542420  0.15996676     0.44400
H76         H  0.07796206  0.08204794  0.30498222     0.08600
N77         N  0.12326144  0.04955494  0.14065574    -0.44900
C78         C  0.26467215  0.61584282  0.11582155     0.82000
N79         N  0.23662626  0.58890365  0.09446199    -0.76300
C80         C  0.18762646  0.61243621  0.08342919     0.84400
N81         N  0.16646193  0.66287042  0.09371387    -0.76200
C82         C  0.19408277  0.69011896  0.11506670     0.84500
N83         N  0.24316309  0.66642539  0.12609128    -0.78000
C84         C  0.79937160  0.12966695  0.33043743     0.82000
N85         N  0.77384273  0.17360179  0.31556286    -0.76300
C86         C  0.72097493  0.19299119  0.32226996     0.84400
N87         N  0.69235776  0.16728029  0.34369056    -0.76200
C88         C  0.71720509  0.12270050  0.35843053     0.84500
N89         N  0.77058830  0.10366766  0.35172893    -0.78000
C90         C  0.16341472  0.31896259  0.35198931     0.82000
N91         N  0.14433476  0.26848259  0.34195490    -0.76300
C92         C  0.17090986  0.24179910  0.31963344     0.84400
N93         N  0.21651291  0.26593185  0.30748709    -0.76200
C94         C  0.23580559  0.31628658  0.31738134     0.84500
N95         N  0.20915500  0.34271892  0.33969147    -0.78000
C96         C  0.37866880  0.12055588  0.08192966     0.82000
N97         N  0.40012722  0.17293266  0.08716017    -0.76300
C98         C  0.37388428  0.20945289  0.10584060     0.84400
N99         N  0.32708274  0.19249957  0.11983351    -0.76200
C100        C  0.30490955  0.14080377  0.11480448     0.84500
N101        N  0.33096125  0.10432017  0.09586821    -0.78000
C102        C  0.64260699  0.55389574  0.29628169     0.44200
N103        N  0.57637064  0.54604051  0.26486003     0.03100
C104        C  0.40127391  0.31896076  0.24768647    -0.04700
H105        H  0.61748413  0.26343372  0.25069923     0.08600
C106        C  0.63960050  0.39168529  0.15952975    -0.05100
Co107      Co  0.50542495  0.44615326  0.27715843     0.74200
N108        N  0.56985005  0.34281093  0.25648620    -0.24300
Co109      Co  0.51789762  0.35097922  0.22043268     0.74100
C110        C  0.66614901  0.33811631  0.17009688     0.44300
N111        N  0.59060412  0.52625512  0.17851299     0.02700
N112        N  0.58853801  0.35518593  0.19301688     0.02900
N113        N  0.39517141  0.38342463  0.28382675    -0.45100
H114        H  0.61442176  0.47529453  0.32159219     0.08600
N115        N  0.56396578  0.37781820  0.27845537     0.03100
N116        N  0.46510734  0.35931405  0.18480280     0.02900
C117        C  0.40853956  0.33766749  0.15067034     0.44500
N118        N  0.58811954  0.55981184  0.20118784    -0.23700
C119        C  0.40631791  0.53099825  0.29451175    -0.04700
N120        N  0.62001950  0.57744595  0.27195062    -0.44800
N121        N  0.42921302  0.32039610  0.17639629    -0.45100
C122        C  0.38620754  0.58776344  0.28472656     0.44300
N123        N  0.44223821  0.38876012  0.26891864     0.03100
N124        N  0.46532236  0.56573168  0.19456130    -0.23800
N125        N  0.56945616  0.50343156  0.28311199    -0.24200
N126        N  0.46716938  0.52932055  0.17290033     0.02800
H127        H  0.40965134  0.63806045  0.20441192     0.08700
H128        H  0.43296895  0.41603769  0.12373466     0.08700
N129        N  0.44710867  0.35164409  0.24765564    -0.24300
N130        N  0.59212827  0.39855818  0.17482720    -0.23900
N131        N  0.45334871  0.55732183  0.25742092     0.03100
C132        C  0.62327391  0.31283566  0.29326671     0.44500
C133        C  0.62808301  0.59888510  0.19915399    -0.05200
N134        N  0.46990994  0.40124191  0.16600672    -0.23900
H135        H  0.65305315  0.42061925  0.14292765     0.08700
N136        N  0.59435147  0.36077388  0.30119268    -0.45100
H137        H  0.63294644  0.63489987  0.21337338     0.08700
C138        C  0.39659201  0.58632918  0.16321693     0.44400
C139        C  0.60926554  0.50501756  0.30380254    -0.04700
Co140      Co  0.52115783  0.55815210  0.22956361     0.73800
N141        N  0.62944155  0.54221169  0.15985304    -0.44800
C142        C  0.36707743  0.34047811  0.27156387     0.44600
N143        N  0.41830768  0.60151707  0.26212268    -0.44800
Co144      Co  0.52989681  0.46396014  0.17237863     0.73900
C145        C  0.43597594  0.39093105  0.14330502    -0.05200
C146        C  0.60706478  0.30052499  0.26367447    -0.04700
N147        N  0.44753849  0.51545605  0.27608072    -0.24300
N148        N  0.63203115  0.31775809  0.19079632    -0.45000
H149        H  0.39303487  0.28455156  0.23292882     0.08600
C150        C  0.42225743  0.60362596  0.19015153    -0.05100
Cl151      Cl  0.51866186  0.45479114  0.22485006    -0.48100
C152        C  0.65534709  0.58710756  0.17188244     0.44400
H153        H  0.39491707  0.50749699  0.31356667     0.08600
N154        N  0.42635757  0.53992622  0.15357189    -0.44900
N155        N  0.53986838  0.97599738  0.51226715    -0.34800
N156        N  0.48518852  0.90914506  0.46755118    -0.55400
N157        N  0.54683467  0.96995566  0.42391418    -0.34800
N158        N  0.60670662  0.03157435  0.46902723    -0.55400
C159        C  0.51550152  0.93525696  0.52817844     0.28800
C160        C  0.57986370  0.99981634  0.52896746     0.28800
C161        C  0.52469407  0.92770781  0.40792732     0.28800
C162        C  0.58926584  0.99267587  0.40865966     0.28800
C163        C  0.45389782  0.89405857  0.49032909     0.37400
C164        C  0.45766897  0.89047693  0.44401114     0.37400
C165        C  0.62194270  0.06244727  0.49214886     0.37400
C166        C  0.62556891  0.05955596  0.44574942     0.37400
C167        C  0.53972992  0.93358203  0.55547761    -0.20100
C168        C  0.58042393  0.97439757  0.55597304    -0.20100
C169        C  0.55287672  0.92405266  0.38194426    -0.20100
C170        C  0.59364302  0.96505968  0.38239855    -0.20100
C171        C  0.40655765  0.86507393  0.48129947    -0.21200
C172        C  0.40895781  0.86276034  0.45191163    -0.21200
C173        C  0.65116412  0.11000578  0.48359123    -0.21200
C174        C  0.65346166  0.10821027  0.45415964    -0.21200
C175        C  0.47000621  0.90183814  0.51918869    -0.16500
C176        C  0.61376818  0.04568210  0.52088054    -0.16500
C177        C  0.62219960  0.03929829  0.41730113    -0.16500
C178        C  0.47818023  0.89431712  0.41574240    -0.16500
H179        H  0.52903975  0.90599000  0.57323789     0.16400
H180        H  0.60720564  0.98435169  0.57417825     0.16400
H181        H  0.54481906  0.89497360  0.36445560     0.16400
H182        H  0.62304290  0.97366615  0.36529245     0.16400
H183        H  0.37420590  0.84667984  0.49452195     0.14700
H184        H  0.37871291  0.84230097  0.43801544     0.14700
H185        H  0.66969695  0.14207265  0.49714881     0.14700
H186        H  0.67416484  0.13872200  0.44055543     0.14700
H187        H  0.52747726  0.98900530  0.49174646     0.27900
H188        H  0.53188158  0.98465102  0.44350686     0.27900
N189        N  0.02547011  0.45962623  0.01429940    -0.34800
N190        N  0.95973419  0.39982329  0.97105907    -0.55400
N191        N  0.02553949  0.45306202  0.92568838    -0.34800
N192        N  0.08572627  0.51871020  0.96901891    -0.55400
C193        C  0.98428689  0.43835053  0.03092772     0.28800
C194        C  0.05208133  0.49955466  0.02989278     0.28800
C195        C  0.98546315  0.42731118  0.90973057     0.28800
C196        C  0.05052037  0.49192597  0.90865112     0.28800
C197        C  0.93952117  0.37459418  0.99489751     0.37400
C198        C  0.94063080  0.36978154  0.94841904     0.37400
C199        C  0.11563777  0.53677823  0.99197425     0.37400
C200        C  0.11387495  0.53547831  0.94542894     0.37400
C201        C  0.98517160  0.46466762  0.05758513    -0.20100
C202        C  0.02797230  0.50324725  0.05694054    -0.20100
C203        C  0.98580674  0.44924830  0.88197433    -0.20100
C204        C  0.02669596  0.49003734  0.88131439    -0.20100
C205        C  0.90659866  0.32883130  0.98735537    -0.21200
C206        C  0.90732159  0.32574859  0.95793287    -0.21200
C207        C  0.16272371  0.56580067  0.98293958    -0.21200
C208        C  0.16153407  0.56511966  0.95346622    -0.21200
C209        C  0.94782452  0.39397075  0.02326932    -0.16500
C210        C  0.09909164  0.53084106  0.02088066    -0.16500
C211        C  0.09542904  0.52762274  0.91677542    -0.16500
C212        C  0.94965767  0.38358369  0.91924928    -0.16500
H213        H  0.95796142  0.45674097  0.07569485     0.16400
H214        H  0.04001972  0.53079938  0.07444213     0.16400
H215        H  0.95915629  0.43733122  0.86405097     0.16400
H216        H  0.03764608  0.51538083  0.86276917     0.16400
H217        H  0.88393841  0.30091074  0.00153795     0.14700
H218        H  0.88523084  0.29499481  0.94502513     0.14700
H219        H  0.19418833  0.58610670  0.99617730     0.14700
H220        H  0.19208608  0.58461500  0.93956253     0.14700
H221        H  0.03697073  0.44542708  0.99407886     0.27900
H222        H  0.03679868  0.44286699  0.94667914     0.27900
N223        N  0.00980590  0.48470625  0.42400307    -0.34800
N224        N  0.07364625  0.42089813  0.46882423    -0.55400
N225        N  0.01374159  0.48797290  0.51297432    -0.34800
N226        N  0.94446953  0.54641680  0.46802663    -0.55400
C227        C  0.03580215  0.44364928  0.40786736     0.28800
C228        C  0.96917306  0.51107561  0.40739163     0.28800
C229        C  0.04245568  0.44877275  0.52971396     0.28800
C230        C  0.97308387  0.51403301  0.52930406     0.28800
C231        C  0.10081663  0.39979936  0.44544782     0.37400
C232        C  0.10413753  0.40261852  0.49209530     0.37400
C233        C  0.92477896  0.57529926  0.44444876     0.37400
C234        C  0.92537998  0.57576841  0.49122930     0.37400
C235        C  0.01186623  0.44454375  0.38050336    -0.20100
C236        C  0.96999001  0.48698738  0.38019389    -0.20100
C237        C  0.02032388  0.45066478  0.55721900    -0.20100
C238        C  0.97666877  0.49159729  0.55695405    -0.20100
C239        C  0.14842004  0.36728869  0.45393107    -0.21200
C240        C  0.15060415  0.36914512  0.48339630    -0.21200
C241        C  0.89245902  0.62295588  0.45272705    -0.21200
C242        C  0.89277719  0.62323510  0.48228078    -0.21200
C243        C  0.08192788  0.40688169  0.41663288    -0.16500
C244        C  0.93288414  0.55768964  0.41561100    -0.16500
C245        C  0.93438192  0.55896314  0.52032935    -0.16500
C246        C  0.08898501  0.41248481  0.52111310    -0.16500
H247        H  0.02345198  0.41754022  0.36251556     0.16400
H248        H  0.94323207  0.49875307  0.36192832     0.16400
H249        H  0.03407739  0.42508036  0.57560683     0.16400
H250        H  0.95059349  0.50353070  0.57513690     0.16400
H251        H  0.17826816  0.34422483  0.44032844     0.14700
H252        H  0.18246711  0.34763084  0.49686264     0.14700
H253        H  0.87052764  0.65404511  0.43891886     0.14700
H254        H  0.87119796  0.65470931  0.49564401     0.14700
H255        H  0.02094419  0.49597152  0.44468370     0.27900
H256        H  0.02305066  0.49816365  0.49197081     0.27900
N257        N  0.54617332  0.94538258  0.92849533    -0.34800
N258        N  0.48460235  0.01124592  0.97287054    -0.55400
N259        N  0.54367089  0.94322396  0.01755258    -0.34800
N260        N  0.61054383  0.88229703  0.97301993    -0.53800
C261        C  0.52037170  0.98650840  0.91190380     0.28800
C262        C  0.58435094  0.91647531  0.91193566     0.28800
C263        C  0.51504639  0.98202402  0.03409674     0.28800
C264        C  0.58389222  0.91619551  0.03423615     0.28800
C265        C  0.45823984  0.03350300  0.94917601     0.37400
C266        C  0.45461245  0.03022151  0.99580878     0.37400
C267        C  0.62998078  0.85311039  0.94979850     0.37400
C268        C  0.63110515  0.85419489  0.99660690     0.37400
C269        C  0.54181137  0.98301879  0.88426252    -0.20100
C270        C  0.58193135  0.93893068  0.88426489    -0.20100
C271        C  0.53671149  0.97879592  0.06189288    -0.20100
C272        C  0.58005510  0.93754665  0.06197488    -0.20100
C273        C  0.41163036  0.06742861  0.95713457    -0.21200
C274        C  0.40922445  0.06523267  0.98657667    -0.21200
C275        C  0.66361517  0.80643107  0.95869725    -0.21200
C276        C  0.66442263  0.80714640  0.98825143    -0.21200
C277        C  0.47664152  0.02582244  0.92050824    -0.16500
C278        C  0.62035774  0.86955572  0.92070609    -0.16500
C279        C  0.62261547  0.87151012  0.02552777    -0.16500
C280        C  0.46923568  0.01939225  0.02501291    -0.16500
H281        H  0.52967170  0.00932852  0.86586358     0.16400
H282        H  0.60656616  0.92513704  0.86588891     0.16400
H283        H  0.52291229  0.00373710  0.08023618     0.16400
H284        H  0.60573534  0.92467512  0.08045572     0.16400
H285        H  0.38241708  0.09143890  0.94318846     0.14700
H286        H  0.37790130  0.08746247  0.99967468     0.14700
H287        H  0.68574198  0.77539401  0.94530010     0.14700
H288        H  0.68721362  0.77657334  0.00200388     0.14700
H289        H  0.53663794  0.93614514  0.94957984     0.27900
H290        H  0.53477676  0.93402707  0.99633542     0.27900
C291        C  0.71710063  0.73966660  0.81193442     0.82000
N292        N  0.68818343  0.75587542  0.83602255    -0.76300
C293        C  0.70719666  0.79914804  0.85270446     0.84400
N294        N  0.75491348  0.82644885  0.84520529    -0.76200
C295        C  0.78411823  0.81070390  0.82133690     0.84500
N296        N  0.76496771  0.76727991  0.80481244    -0.78000
C297        C  0.77151977  0.29842168  0.83160014     0.82000
N298        N  0.79346017  0.25302444  0.81696218    -0.76300
C299        C  0.84508855  0.22977100  0.82378287     0.84400
N300        N  0.87636174  0.25309351  0.84517394    -0.76200
C301        C  0.85499416  0.29913139  0.85979627     0.84500
N302        N  0.80273510  0.32192991  0.85289121    -0.78000
C303        C  0.39661740  0.11820834  0.85590405     0.82000
N304        N  0.34832967  0.09686013  0.84490178    -0.76300
C305        C  0.32013545  0.12402129  0.82294952     0.84400
N306        N  0.34082623  0.17331166  0.81188747    -0.76200
C307        C  0.38947175  0.19513142  0.82286927     0.84500
N308        N  0.41710862  0.16725178  0.84491262    -0.78000
C309        C  0.19845056  0.70755160  0.83344092     0.82000
N310        N  0.16582012  0.67580699  0.85100045    -0.76300
C311        C  0.18395398  0.62226992  0.85926763     0.84400
N312        N  0.23454267  0.60035801  0.84985802    -0.76200
C313        C  0.26713093  0.63170769  0.83221862     0.84500
N314        N  0.24876471  0.68503297  0.82406401    -0.78000
C315        C  0.18778396  0.31837748  0.57899723     0.82000
N316        N  0.23773206  0.33846103  0.58888640    -0.76300
C317        C  0.27065930  0.30722500  0.60782907     0.84400
N318        N  0.25250650  0.25542242  0.61724402    -0.76200
C319        C  0.20255327  0.23459984  0.60712045     0.84500
N320        N  0.17065952  0.26641368  0.58799767    -0.78000
C321        C  0.69358937  0.20453329  0.61901417     0.82000
N322        N  0.74314887  0.18271886  0.63081500    -0.76300
C323        C  0.76793395  0.13394044  0.61983333     0.84400
N324        N  0.74293674  0.10757708  0.59731221    -0.76200
C325        C  0.69382183  0.12916632  0.58572217     0.84500
N326        N  0.66931824  0.17739847  0.59657264    -0.78000
C327        C  0.38853117  0.59661935  0.78155289     0.44200
N328        N  0.41872126  0.53309085  0.75194710     0.03100
C329        C  0.67188099  0.37748069  0.75391885    -0.04700
H330        H  0.69038520  0.60149750  0.74199686     0.08600
C331        C  0.59722188  0.56649134  0.64072980    -0.05100
Co332      Co  0.52638271  0.47470191  0.77168374     0.74200
N333        N  0.62196375  0.54358691  0.74922282    -0.24300
Co334      Co  0.62651387  0.47929603  0.71723181     0.74100
C335        C  0.65106081  0.59170977  0.64906825     0.44300
N336        N  0.45381809  0.53439463  0.66707235     0.02700
N337        N  0.62143747  0.53884639  0.68364733     0.02900
N338        N  0.60869776  0.37711485  0.79032973    -0.45100
H339        H  0.46447054  0.57921024  0.81228412     0.08600
N340        N  0.58359874  0.54090675  0.76975663     0.03100
N341        N  0.62726667  0.41409942  0.68631913     0.02900
C342        C  0.65020423  0.33944002  0.66182796     0.44500
N343        N  0.41614041  0.53356620  0.68798518    -0.23700
C344        C  0.46431942  0.36300444  0.78935208    -0.04700
N345        N  0.37614840  0.56996963  0.75681702    -0.44800
N346        N  0.66644805  0.37236887  0.68393978    -0.45100
C347        C  0.41516508  0.33261726  0.77847193     0.44300
N348        N  0.59468307  0.41646679  0.77066390     0.03100
N349        N  0.42081389  0.40904691  0.68888240    -0.23800
N350        N  0.45797448  0.53314090  0.77229550    -0.24200
N351        N  0.45644009  0.40903338  0.66718739     0.02800
H352        H  0.34541016  0.36279456  0.69788260     0.08700
H353        H  0.57046857  0.35126418  0.63271326     0.08700
N354        N  0.63164551  0.41827218  0.74960603    -0.24300
N355        N  0.58221199  0.53434828  0.66335024    -0.23900
N356        N  0.42737345  0.40742683  0.75237956     0.03100
C357        C  0.63128194  0.61449208  0.78104491     0.44500
C358        C  0.37883925  0.57758477  0.68422156    -0.05200
N359        N  0.58590147  0.41048545  0.66703595    -0.23900
H360        H  0.57631400  0.56722088  0.61993453     0.08700
N361        N  0.58778239  0.58213504  0.78898249    -0.45100
H362        H  0.34322273  0.58817393  0.69792936     0.08700
C363        C  0.39599563  0.34443352  0.65703032     0.44400
C364        C  0.44226776  0.57156349  0.79229297    -0.04700
Co365      Co  0.41996679  0.47088479  0.72031395     0.73800
N366        N  0.44451403  0.57766381  0.64892170    -0.44800
C367        C  0.65628079  0.35030799  0.78059464     0.44600
N368        N  0.39457267  0.36279239  0.75559079    -0.44800
Co369      Co  0.51938073  0.47199068  0.66550196     0.73900
C370        C  0.59669711  0.36466360  0.65047582    -0.05200
C371        C  0.65440651  0.58898183  0.75456371    -0.04700
N372        N  0.46854706  0.40852041  0.77180888    -0.24300
N373        N  0.66347710  0.57185017  0.67579703    -0.45000
H374        H  0.70896548  0.36986054  0.74076682     0.08600
C375        C  0.38210496  0.36935522  0.68460377    -0.05100
Cl376      Cl  0.52312221  0.47448880  0.71859186    -0.48100
C377        C  0.39776374  0.60653234  0.65846309     0.44400
H378        H  0.49216525  0.35271088  0.80737896     0.08600
N379        N  0.44178847  0.37200157  0.64693572    -0.44900
C380        C  0.78486565  0.66552669  0.62062459     0.82000
N381        N  0.80486591  0.63456681  0.59782228    -0.76300
C382        C  0.85063675  0.65254602  0.58286461     0.84400
N383        N  0.87605801  0.70158535  0.59068474    -0.76200
C384        C  0.85662910  0.73274528  0.61336234     0.84500
N385        N  0.81163282  0.71384126  0.62850022    -0.78000
C386        C  0.30604884  0.81896690  0.61266328     0.82000
N387        N  0.32563297  0.76739850  0.62314746    -0.76300
C388        C  0.37359893  0.74185719  0.61240286     0.84400
N389        N  0.40205285  0.76831725  0.59123531    -0.76200
C390        C  0.38260890  0.81961089  0.58082221     0.84500
N391        N  0.33478028  0.84490561  0.59147081    -0.78000
C392        C  0.92007180  0.85468832  0.78240385     0.44200
N393        N  0.99230882  0.87394401  0.75687726     0.03100
C394        C  0.15132730  0.11615025  0.75421606    -0.04700
H395        H  0.94012618  0.16026625  0.75207745     0.08600
C396        C  0.93057974  0.04489955  0.65452261    -0.05100
Co397      Co  0.05353592  0.97696733  0.77621223     0.74200
N398        N  0.98618634  0.07955692  0.75608034    -0.24300
Co399      Co  0.04225399  0.07979730  0.72196692     0.74100
C400        C  0.90103997  0.09579450  0.66612594     0.44300
N401        N  0.98499529  0.90662415  0.67172809     0.02700
N402        N  0.97574506  0.07627043  0.69166957     0.02900
N403        N  0.15970419  0.04847665  0.78917097    -0.45100
H404        H  0.93519700  0.93140035  0.81243078     0.08600
N405        N  0.99132951  0.04167917  0.77711202     0.03100
N406        N  0.09961189  0.08086059  0.68837212     0.02900
C407        C  0.15837397  0.11353508  0.65776610     0.44500
N408        N  0.98891017  0.87013668  0.69344117    -0.23700
C409        C  0.15275272  0.89408197  0.79649129    -0.04700
N410        N  0.95042702  0.83805050  0.75940476    -0.44800
N411        N  0.13396567  0.12336688  0.68333958    -0.45100
C412        C  0.17749029  0.83990698  0.78609557     0.44300
N413        N  0.11450034  0.04054914  0.77253425     0.03100
N414        N  0.11138968  0.87372246  0.69177685    -0.23800
N415        N  0.99176239  0.91385460  0.77689229    -0.24200
N416        N  0.10915571  0.91194746  0.67068686     0.02800
H417        H  0.16692020  0.80084956  0.70128225     0.08700
H418        H  0.14179031  0.03921293  0.62646753     0.08700
N419        N  0.10891012  0.07963775  0.75192633    -0.24300
N420        N  0.97620928  0.03622983  0.67165234    -0.23900
N421        N  0.11599011  0.87264430  0.75538610     0.03100
C422        C  0.93184998  0.10498082  0.79278005     0.44500
C423        C  0.95087032  0.82956282  0.68995042    -0.05200
N424        N  0.09938356  0.04253363  0.66763384    -0.23900
H425        H  0.92024231  0.01922628  0.63605630     0.08700
N426        N  0.96056158  0.05601944  0.79980507    -0.45100
H427        H  0.94661581  0.79234726  0.70357155     0.08700
C428        C  0.18076290  0.85655886  0.66148941     0.44400
C429        C  0.94731344  0.90519944  0.79426215    -0.04700
Co430      Co  0.05227424  0.87218041  0.72435057     0.73800
N431        N  0.94615492  0.89153374  0.65240672    -0.44800
C432        C  0.18486414  0.09547584  0.77870197     0.44600
N433        N  0.15177419  0.82907045  0.76085282    -0.44800
Co434      Co  0.04253019  0.97426267  0.66958986     0.73900
C435        C  0.13487904  0.06003111  0.64689878    -0.05200
C436        C  0.94876729  0.12080495  0.76380101    -0.04700
N437        N  0.11550283  0.91129391  0.77588544    -0.24300
N438        N  0.93159738  0.11280631  0.68907046    -0.45000
H439        H  0.15776750  0.15273179  0.74045170     0.08600
C440        C  0.15520895  0.83716863  0.68773702    -0.05100
Cl441      Cl  0.04772232  0.97587489  0.72297981    -0.48100
C442        C  0.92270234  0.84352125  0.66296145     0.44400
H443        H  0.15819136  0.91436306  0.81712747     0.08600
N444        N  0.15035471  0.90308516  0.65175357    -0.44900
C445        C  0.25500753  0.84805322  0.62455143    -0.14700
C446        C  0.22990977  0.82790028  0.64797418    -0.29800
H447        H  0.23899905  0.88752478  0.61449695     0.14400
H448        H  0.24670104  0.78910003  0.65836428     0.14900
C449        C  0.88840491  0.78345065  0.62298828    -0.14700
C450        C  0.88068298  0.80660189  0.64912570    -0.29800
H451        H  0.92322275  0.79755033  0.60983479     0.14400
H452        H  0.84910925  0.78895193  0.66320806     0.14900
C453        C  0.37263655  0.65974921  0.64602596    -0.14700
C454        C  0.39639274  0.68663621  0.62386588    -0.29800
H455        H  0.33463817  0.67792841  0.65597161     0.14400
H456        H  0.43479742  0.66843816  0.61428192     0.14900
C457        C  0.69376951  0.61594172  0.62935539    -0.14700
C458        C  0.73892619  0.64415032  0.63924105    -0.29800
H459        H  0.68819736  0.61005679  0.60638083     0.14400
H460        H  0.74183443  0.65333640  0.66206343     0.14900
C461        C  0.66423617  0.25690399  0.62979944    -0.14700
C462        C  0.68234719  0.28768023  0.65210953    -0.29800
H463        H  0.62531738  0.27038105  0.61864633     0.14400
H464        H  0.72118729  0.27481065  0.66350881     0.14900
C465        C  0.84861493  0.12586370  0.65518400    -0.14700
C466        C  0.82123623  0.10752957  0.63168806    -0.29800
H467        H  0.83231354  0.16313474  0.66669825     0.14400
H468        H  0.83801320  0.07006229  0.62051781     0.14900
C469        C  0.19347224  0.15699534  0.64359381    -0.14700
C470        C  0.17969618  0.17964421  0.61773417    -0.29800
H471        H  0.22406050  0.17846263  0.65701512     0.14400
H472        H  0.14490169  0.16162158  0.60566153     0.14900
C473        C  0.35588502  0.30948363  0.64041305    -0.14700
C474        C  0.32349958  0.33289749  0.61917611    -0.29800
H475        H  0.34429882  0.26885788  0.64971628     0.14400
H476        H  0.33310465  0.37550845  0.61153983     0.14900
C477        C  0.34547012  0.62941469  0.79761621    -0.14700
C478        C  0.31989649  0.60607921  0.82030728    -0.29800
H479        H  0.32809281  0.66849744  0.78776952     0.14400
H480        H  0.33486531  0.56449266  0.82841987     0.14900
C481        C  0.17708838  0.76402448  0.82261452    -0.14700
C482        C  0.20584889  0.79388359  0.80301870    -0.29800
H483        H  0.13465682  0.77879677  0.82873077     0.14400
H484        H  0.24679329  0.77779977  0.79544635     0.14900
C485        C  0.39065178  0.27878469  0.78915213    -0.14700
C486        C  0.41306800  0.24899296  0.81162025    -0.29800
H487        H  0.35334962  0.26338563  0.77811836     0.14400
H488        H  0.45064441  0.26447060  0.82236259     0.14900
C489        C  0.26740525  0.09885613  0.81180574    -0.14700
C490        C  0.23701726  0.12153454  0.78980584    -0.29800
H491        H  0.25337103  0.05994841  0.82203515     0.14400
H492        H  0.25086018  0.16018661  0.77929369     0.14900
C493        C  0.90512079  0.14377172  0.81380666    -0.14700
C494        C  0.86898507  0.18547307  0.80482560    -0.29800
H495        H  0.91587690  0.13890439  0.83645662     0.14400
H496        H  0.85540848  0.18693364  0.78243171     0.14900
C497        C  0.71809708  0.32684927  0.82154714    -0.14700
C498        C  0.69372238  0.31084892  0.79680100    -0.29800
H499        H  0.70334320  0.36587579  0.83213107     0.14400
H500        H  0.71101176  0.27441976  0.78497654     0.14900
C501        C  0.69765842  0.69238247  0.79322245    -0.14700
C502        C  0.65076635  0.66302047  0.79870640    -0.29800
H503        H  0.72304524  0.68119694  0.77458442     0.14400
H504        H  0.62562967  0.67399995  0.81746038     0.14900
C505        C  0.83625628  0.84117017  0.81368203    -0.14700
C506        C  0.86786618  0.82592205  0.79094127    -0.29800
H507        H  0.84896398  0.87649392  0.82710594     0.14400
H508        H  0.85522665  0.79032438  0.77767673     0.14900
C509        C  0.44889680  0.06081264  0.89819187    -0.11500
C510        C  0.42583557  0.08833547  0.87909114    -0.13100
C511        C  0.65127071  0.83865611  0.89818159    -0.11500
C512        C  0.67624046  0.81786271  0.87786517    -0.13100
C513        C  0.12220464  0.38109712  0.54315197    -0.11500
C514        C  0.15193969  0.35300016  0.55978183    -0.13100
C515        C  0.90168878  0.58986140  0.54234298    -0.11500
C516        C  0.87611547  0.61738574  0.56048572    -0.13100
C517        C  0.12361907  0.55989857  0.89459345    -0.11500
C518        C  0.14975548  0.58843799  0.87787195    -0.13100
C519        C  0.91768091  0.35273472  0.89785850    -0.11500
C520        C  0.88956401  0.32716581  0.88067238    -0.13100
C521        C  0.64321369  0.07579647  0.54332519    -0.11500
C522        C  0.66695262  0.10030931  0.56245051    -0.13100
C523        C  0.43915198  0.87223008  0.54090653    -0.11500
C524        C  0.41331304  0.84781205  0.55904570    -0.13100
C525        C  0.43684554  0.05145333  0.04669819    -0.11500
C526        C  0.40916732  0.08130193  0.06307545    -0.13100
C527        C  0.37490824  0.30013347  0.13256867    -0.14700
C528        C  0.40050848  0.26350895  0.11417321    -0.29800
H529        H  0.33192758  0.29278290  0.13962123     0.14400
H530        H  0.44440125  0.26960530  0.10817270     0.14900
C531        C  0.11118463  0.37378000  0.39446988    -0.11500
C532        C  0.13495671  0.34778431  0.37537830    -0.13100
C533        C  0.28647137  0.34147127  0.30473401    -0.14700
C534        C  0.31396431  0.31743853  0.28238906    -0.29800
H535        H  0.30235224  0.37999095  0.31452015     0.14400
H536        H  0.29813098  0.27933579  0.27220999     0.14900
C537        C  0.68487036  0.09235698  0.37910402    -0.11500
C538        C  0.65625914  0.06718481  0.39600572    -0.13100
C539        C  0.69310700  0.23645139  0.30369629    -0.14700
C540        C  0.65364318  0.27380521  0.31331990    -0.29800
H541        H  0.70606181  0.23813129  0.28135443     0.14400
H542        H  0.64349017  0.27560555  0.33602848     0.14900
C543        C  0.15760373  0.58374772  0.06115117    -0.11500
C544        C  0.13127490  0.55996394  0.04268705    -0.13100
C545        C  0.31776094  0.58954632  0.12780742    -0.14700
C546        C  0.34508185  0.61282655  0.15005831    -0.29800
H547        H  0.33401910  0.54973143  0.11855203     0.14400
H548        H  0.32830341  0.65196704  0.15975660     0.14900
C549        C  0.21411092  0.09328099  0.12561585    -0.14700
C550        C  0.25936544  0.12251476  0.13399065    -0.29800
H551        H  0.20786660  0.08282329  0.10312102     0.14400
H552        H  0.26225665  0.13641865  0.15619265     0.14900
C553        C  0.17412502  0.15912620  0.28643297    -0.14700
C554        C  0.15004828  0.18700430  0.30876730    -0.29800
H555        H  0.21044267  0.17659106  0.27564391     0.14400
H556        H  0.11357846  0.16957185  0.31939137     0.14900
C557        C  0.87758958  0.12396276  0.29630908    -0.14700
C558        C  0.85413229  0.10493355  0.32057439    -0.29800
H559        H  0.85891524  0.16084077  0.28500162     0.14400
H560        H  0.87059857  0.06565931  0.33066992     0.14900
C561        C  0.16972192  0.74460057  0.12617258    -0.14700
C562        C  0.19298015  0.77217623  0.14833937    -0.29800
H563        H  0.13097065  0.76193969  0.11612694     0.14400
H564        H  0.23145040  0.75494718  0.15868109     0.14900
C565        C  0.89401277  0.34226726  0.06541793    -0.11500
C566        C  0.91724693  0.36647145  0.04610344    -0.13100
C567        C  0.88482089  0.14842959  0.15247338    -0.14700
C568        C  0.90035121  0.17908022  0.12965095    -0.29800
H569        H  0.84851362  0.16255016  0.16514120     0.14400
H570        H  0.93675412  0.16451287  0.11717959     0.14900
C571        C  0.74805168  0.33173965  0.13771924    -0.14700
C572        C  0.71860453  0.30873770  0.15931092    -0.29800
H573        H  0.73350117  0.37246925  0.12856286     0.14400
H574        H  0.73235993  0.26794438  0.16874295     0.14900
C575        C  0.45011132  0.86092988  0.39395449    -0.11500
C576        C  0.42216708  0.83257155  0.37788817    -0.13100
C577        C  0.22643737  0.80554138  0.29629444    -0.14700
C578        C  0.24769235  0.82117927  0.32181700    -0.29800
H579        H  0.24746838  0.77157829  0.28411680     0.14400
H580        H  0.23023642  0.85903125  0.33248484     0.14900
C581        C  0.35833181  0.63238958  0.30211192    -0.14700
C582        C  0.38899454  0.66200372  0.32108166    -0.29800
H583        H  0.31580995  0.64716031  0.29579624     0.14400
H584        H  0.43239154  0.64771011  0.32611043     0.14900
C585        C  0.68253350  0.81427692  0.06614549    -0.11500
C586        C  0.65608086  0.84119171  0.04779202    -0.13100
C587        C  0.67867617  0.65014677  0.13131056    -0.14700
C588        C  0.69209276  0.62737672  0.15720458    -0.29800
H589        H  0.64242616  0.63472062  0.11937226     0.14400
H590        H  0.72533690  0.64577969  0.17018156     0.14900
C591        C  0.82542853  0.79092054  0.14339395    -0.14700
C592        C  0.87114548  0.81565376  0.13255123    -0.29800
H593        H  0.82272690  0.78457189  0.16649010     0.14400
H594        H  0.87650149  0.81857858  0.10943877     0.14900
C595        C  0.90127917  0.58814153  0.39278732    -0.11500
C596        C  0.87704869  0.61095125  0.37246490    -0.13100
C597        C  0.72326255  0.61566248  0.30010194    -0.14700
C598        C  0.69410079  0.57279411  0.31107455    -0.29800
H599        H  0.70809195  0.63658147  0.28042778     0.14400
H600        H  0.70845150  0.55089654  0.33059399     0.14900
C601        C  0.87276047  0.74952789  0.29226912    -0.14700
C602        C  0.92073935  0.77527715  0.29922180    -0.29800
H603        H  0.84881351  0.76377330  0.27335315     0.14400
H604        H  0.94492674  0.76194536  0.31822442     0.14900
loop_ 
_geom_bond_atom_site_label_1 
_geom_bond_atom_site_label_2 
_geom_bond_distance 
_geom_bond_site_symmetry_2 
_ccdc_geom_bond_type 
C1            N2   1.363       .  A
C1            N6   1.348       .  A
C1          C601   1.471       .  S
N2            C3   1.364       .  A
C3            N4   1.363       .  A
C3          C596   1.445       .  S
N4            C5   1.362       .  A
C5            N6   1.349       .  A
C5          C597   1.468       .  S
C7            N8   1.359       .  A
C7           N12   1.357       .  A
C7          C587   1.482       .  S
N8            C9   1.361       .  A
C9           N10   1.364       .  A
C9          C585   1.447       .  S
N10          C11   1.364       .  A
C11          N12   1.354       .  A
C11         C591   1.475       .  S
C13          N14   1.357       .  A
C13          N18   1.359       .  A
C13         C582   1.476       .  S
N14          C15   1.357       .  A
C15          N16   1.357       .  A
C15         C578   1.474       .  S
N16          C17   1.358       .  A
C17          N18   1.358       .  A
C17         C576   1.437       .  S
C19          N20   1.356       .  A
C19          N24   1.367       .  A
C19         C568   1.477       .  S
N20          C21   1.352       .  A
C21          N22   1.353       .  A
C21         C565   1.433       .  S
N22          C23   1.359       .  A
C23          N24   1.365       .  A
C23         C571   1.479       .  S
C25          N43   1.345       .  A
C25         C577   1.464       .  S
C25          C62   1.459       .  S
N26          N43   1.322       .  A
N26          N48   1.317       .  A
N26         Co63   2.074       .  S
C27          N52   1.335       .  A
C27          C65   1.449       .  S
C27          H72   1.082       .  S
H28          C69   1.081       .  S
C29          N53   1.343       .  A
C29          C33   1.458       .  S
C29          H58   1.082       .  S
Co30         N48   2.073       .  S
Co30         N38   2.072   1_455  S
Co30         N70   2.070   1_565  S
Co30         N46   2.072   1_465  S
Co30        Cl74   2.468       .  S
N31          C69   1.341       .  A
N31          N38   1.322       .  A
N31         Co32   2.102       .  S
Co32         N35   2.080       .  S
Co32         N52   2.068   1_565  S
Co32         N39   2.088   1_565  S
Co32        Cl74   2.436   1_655  S
C33          N71   1.351       .  A
C33         C592   1.479       .  S
N34          N41   1.324       .  A
N34          N64   1.326       .  A
N34         Co67   2.095       .  S
N35          N53   1.319       .  A
N35          N71   1.325       .  A
N36          C65   1.348       .  A
N36          N46   1.326       .  A
H37          C62   1.082       .  S
N38          N59   1.323       .  A
N39          N57   1.323       .  A
N39          N44   1.324       .  A
C40          N44   1.346       .  A
C40         C567   1.477       .  S
C40          C68   1.468       .  S
N41          C56   1.339       .  A
N41         Co63   2.091       .  S
C42          N70   1.336       .  A
C42          C45   1.455       .  S
C42          H76   1.081       .  S
C45          N66   1.354       .  A
C45         C553   1.476       .  S
N46          N52   1.317       .  A
N47          C73   1.338       .  A
N47          N49   1.319       .  A
N47         Co63   2.072   1_545  S
N48          C62   1.343       .  A
N49          N77   1.328       .  A
N49         Co67   2.090   1_545  S
H50          C73   1.082       .  S
H51          C68   1.081       .  S
N53         Co67   2.086   1_655  S
N54          N66   1.327       .  A
N54          N70   1.321       .  A
N54         Co63   2.107   1_545  S
C55          N59   1.345       .  A
C55         C602   1.474       .  S
C55          C69   1.468       .  S
C56          C75   1.453       .  S
C56          H60   1.081       .  S
N57          C68   1.343       .  A
N57         Co67   2.099   1_645  S
C61          N77   1.352       .  A
C61         C549   1.482       .  S
C61          C73   1.459       .  S
Co63        Cl74   2.433       .  S
N64          C75   1.352       .  A
C65         C557   1.457       .  S
Co67        Cl74   2.463       .  S
C75         C562   1.473       .  S
C78          N79   1.357       .  A
C78          N83   1.361       .  A
C78         C545   1.478       .  S
N79          C80   1.357       .  A
C80          N81   1.355       .  A
C80         C543   1.432       .  S
N81          C82   1.356       .  A
C82          N83   1.360       .  A
C82         C561   1.477       .  S
C84          N85   1.356       .  A
C84          N89   1.358       .  A
C84         C558   1.474       .  S
N85          C86   1.350       .  A
C86          N87   1.357       .  A
C86         C539   1.465       .  S
N87          C88   1.358       .  A
C88          N89   1.359       .  A
C88         C537   1.432       .  S
C90          N91   1.360       .  A
C90          N95   1.358       .  A
C90         C532   1.442       .  S
N91          C92   1.361       .  A
C92          N93   1.356       .  A
C92         C554   1.477       .  S
N93          C94   1.357       .  A
C94          N95   1.359       .  A
C94         C533   1.474       .  S
C96          N97   1.362       .  A
C96         N101   1.366       .  A
C96         C526   1.450       .  S
N97          C98   1.359       .  A
C98          N99   1.355       .  A
C98         C528   1.481       .  S
N99         C100   1.353       .  A
C100        N101   1.365       .  A
C100        C550   1.475       .  S
C102        N120   1.353       .  A
C102        C598   1.471       .  S
C102        C139   1.451       .  S
N103        N120   1.323       .  A
N103        N125   1.321       .  A
N103       Co140   2.098       .  S
C104        N129   1.343       .  A
C104        C142   1.460       .  S
C104        H149   1.081       .  S
H105        C146   1.082       .  S
C106        N130   1.336       .  A
C106        C110   1.461       .  S
C106        H135   1.081       .  S
Co107       N125   2.067       .  S
Co107       N115   2.075       .  S
Co107       N147   2.082       .  S
Co107       N123   2.071       .  S
Co107      Cl151   2.465       .  S
N108        C146   1.338       .  A
N108        N115   1.318       .  A
N108       Co109   2.072       .  S
Co109       N112   2.110       .  S
Co109       N129   2.103       .  S
Co109       N116   2.068       .  S
Co109      Cl151   2.436       .  S
C110        N148   1.355       .  A
C110        C572   1.486       .  S
N111        N118   1.318       .  A
N111        N141   1.328       .  A
N111       Co144   2.093       .  S
N112        N130   1.323       .  A
N112        N148   1.329       .  A
N113        C142   1.347       .  A
N113        N123   1.322       .  A
H114        C139   1.081       .  S
N115        N136   1.324       .  A
N116        N134   1.319       .  A
N116        N121   1.320       .  A
C117        N121   1.343       .  A
C117        C527   1.466       .  S
C117        C145   1.462       .  S
N118        C133   1.337       .  A
N118       Co140   2.067       .  S
C119        N147   1.343       .  A
C119        C122   1.463       .  S
C119        H153   1.081       .  S
C122        N143   1.345       .  A
C122        C581   1.465       .  S
N123        N129   1.322       .  A
N124        C150   1.337       .  A
N124        N126   1.323       .  A
N124       Co140   2.087       .  S
N125        C139   1.339       .  A
N126        N154   1.327       .  A
N126       Co144   2.089       .  S
H127        C150   1.081       .  S
H128        C145   1.081       .  S
N130       Co144   2.084       .  S
N131        N143   1.321       .  A
N131        N147   1.316       .  A
N131       Co140   2.067       .  S
C132        N136   1.346       .  A
C132        C540   1.466       .  S
C132        C146   1.458       .  S
C133        C152   1.451       .  S
C133        H137   1.082       .  S
N134        C145   1.346       .  A
N134       Co144   2.090       .  S
C138        N154   1.352       .  A
C138        C546   1.470       .  S
C138        C150   1.452       .  S
Co140      Cl151   2.429       .  S
N141        C152   1.352       .  A
C142        C534   1.470       .  S
Co144      Cl151   2.468       .  S
C152        C588   1.470       .  S
N155        C160   1.352       .  A
N155        C159   1.350       .  A
N155        H187   1.037       .  S
N156        C163   1.349       .  A
N156        C164   1.349       .  A
N157        C162   1.352       .  A
N157        C161   1.355       .  A
N157        H188   1.037       .  S
N158        C165   1.351       .  A
N158        C166   1.349       .  A
C159        C167   1.388       .  A
C159        C175   1.408       .  A
C160        C176   1.409   1_565  A
C160        C168   1.387       .  A
C161        C169   1.386       .  A
C161        C178   1.415       .  A
C162        C177   1.416   1_565  A
C162        C170   1.388       .  A
C163        C175   1.407       .  A
C163        C171   1.387       .  A
C164        C178   1.409       .  A
C164        C172   1.388       .  A
C165        C173   1.385       .  A
C165        C176   1.408       .  A
C166        C174   1.388       .  A
C166        C177   1.411       .  A
C167        H179   1.082       .  S
C167        C168   1.375       .  A
C168        H180   1.082       .  S
C169        H181   1.082       .  S
C169        C170   1.379       .  A
C170        H182   1.082       .  S
C171        H183   1.082       .  S
C171        C172   1.371       .  A
C172        H184   1.082       .  S
C173        H185   1.082       .  S
C173        C174   1.372       .  A
C174        H186   1.082       .  S
C175        C523   1.438       .  S
C176        C521   1.447       .  S
C177        C538   1.447       .  S
C178        C575   1.450       .  S
N189        C194   1.352       .  A
N189        C193   1.352   1_455  A
N189        H221   1.035   1_554  S
N190        C197   1.352       .  A
N190        C198   1.351       .  A
N191        C196   1.355       .  A
N191        C195   1.354   1_455  A
N191        H222   1.034       .  S
N192        C199   1.351       .  A
N192        C200   1.351       .  A
C193        C201   1.388       .  A
C193        C209   1.413       .  A
C194        C210   1.413       .  A
C194        C202   1.388       .  A
C195        C203   1.388       .  A
C195        C212   1.418       .  A
C196        C211   1.418       .  A
C196        C204   1.387       .  A
C197        C209   1.412   1_556  A
C197        C205   1.386       .  A
C198        C212   1.413       .  A
C198        C206   1.388       .  A
C199        C207   1.386       .  A
C199        C210   1.412   1_556  A
C200        C208   1.388       .  A
C200        C211   1.413       .  A
C201        H213   1.082       .  S
C201        C202   1.375   1_655  A
C202        H214   1.082       .  S
C203        H215   1.082       .  S
C203        C204   1.378   1_655  A
C204        H216   1.082       .  S
C205        H217   1.082   1_556  S
C205        C206   1.372       .  A
C206        H218   1.082       .  S
C207        H219   1.082       .  S
C207        C208   1.372       .  A
C208        H220   1.082       .  S
C209        C566   1.449       .  S
C210        C544   1.447       .  S
C211        C517   1.454       .  S
C212        C519   1.452       .  S
N223        C228   1.355   1_455  A
N223        C227   1.355       .  A
N223        H255   1.033       .  S
N224        C231   1.354       .  A
N224        C232   1.353       .  A
N225        C230   1.358   1_455  A
N225        C229   1.358       .  A
N225        H256   1.032       .  S
N226        C233   1.355       .  A
N226        C234   1.354       .  A
C227        C235   1.388       .  A
C227        C243   1.418       .  A
C228        C244   1.418       .  A
C228        C236   1.388       .  A
C229        C237   1.387       .  A
C229        C246   1.424       .  A
C230        C245   1.425       .  A
C230        C238   1.388       .  A
C231        C243   1.416       .  A
C231        C239   1.386       .  A
C232        C246   1.418       .  A
C232        C240   1.388       .  A
C233        C241   1.386       .  A
C233        C244   1.418       .  A
C234        C242   1.388       .  A
C234        C245   1.420       .  A
C235        H247   1.082       .  S
C235        C236   1.375   1_455  A
C236        H248   1.082       .  S
C237        H249   1.082       .  S
C237        C238   1.380   1_455  A
C238        H250   1.082       .  S
C239        H251   1.082       .  S
C239        C240   1.373       .  A
C240        H252   1.082       .  S
C241        H253   1.082       .  S
C241        C242   1.375       .  A
C242        H254   1.082       .  S
C243        C531   1.457       .  S
C244        C595   1.460       .  S
C245        C515   1.466       .  S
C246        C513   1.463       .  S
N257        C262   1.355       .  A
N257        C261   1.354       .  A
N257        H289   1.032       .  S
N258        C265   1.353       .  A
N258        C266   1.354       .  A
N259        C264   1.357       .  A
N259        C263   1.358       .  A
N259        H290   1.033   1_554  S
N260        C267   1.356       .  A
N260        C268   1.354       .  A
C261        C269   1.388       .  A
C261        C277   1.419   1_565  A
C262        C278   1.419       .  A
C262        C270   1.388       .  A
C263        C271   1.387       .  A
C263        C280   1.425   1_565  A
C264        C279   1.426       .  A
C264        C272   1.389       .  A
C265        C277   1.417       .  A
C265        C273   1.387       .  A
C266        C280   1.418   1_556  A
C266        C274   1.388       .  A
C267        C275   1.386       .  A
C267        C278   1.420       .  A
C268        C276   1.388       .  A
C268        C279   1.421   1_556  A
C269        H281   1.082   1_565  S
C269        C270   1.374       .  A
C270        H282   1.082       .  S
C271        H283   1.082   1_565  S
C271        C272   1.380       .  A
C272        H284   1.082       .  S
C273        H285   1.082       .  S
C273        C274   1.373       .  A
C274        H286   1.082       .  S
C275        H287   1.082       .  S
C275        C276   1.376       .  A
C276        H288   1.082   1_556  S
C277        C509   1.455       .  S
C278        C511   1.462       .  S
C279        C586   1.462       .  S
C280        C525   1.465       .  S
C291        N292   1.366       .  A
C291        N296   1.360       .  A
C291        C501   1.492       .  S
N292        C293   1.363       .  A
C293        N294   1.358       .  A
C293        C512   1.447       .  S
N294        C295   1.358       .  A
C295        N296   1.363       .  A
C295        C505   1.485       .  S
C297        N298   1.354       .  A
C297        N302   1.358       .  A
C297        C497   1.474       .  S
N298        C299   1.349       .  A
C299        N300   1.360       .  A
C299        C494   1.465       .  S
N300        C301   1.361       .  A
C301        N302   1.360       .  A
C301        C520   1.436       .  S
C303        N304   1.354       .  A
C303        N308   1.358       .  A
C303        C510   1.439       .  S
N304        C305   1.357       .  A
C305        N306   1.366       .  A
C305        C489   1.482       .  S
N306        C307   1.365       .  A
C307        N308   1.361       .  A
C307        C486   1.488       .  S
C309        N310   1.361       .  A
C309        N314   1.357       .  A
C309        C481   1.481       .  S
N310        C311   1.361       .  A
C311        N312   1.358       .  A
C311        C518   1.439       .  S
N312        C313   1.358       .  A
C313        N314   1.357       .  A
C313        C478   1.475       .  S
C315        N316   1.358       .  A
C315        N320   1.358       .  A
C315        C514   1.449       .  S
N316        C317   1.362       .  A
C317        N318   1.369       .  A
C317        C474   1.493       .  S
N318        C319   1.368       .  A
C319        N320   1.361       .  A
C319        C470   1.493       .  S
C321        N322   1.367       .  A
C321        N326   1.356       .  A
C321        C461   1.478       .  S
N322        C323   1.367       .  A
C323        N324   1.358       .  A
C323        C466   1.481       .  S
N324        C325   1.353       .  A
C325        N326   1.351       .  A
C325        C522   1.432       .  S
C327        N345   1.346       .  A
C327        C477   1.464       .  S
C327        C364   1.459       .  S
N328        N345   1.322       .  A
N328        N350   1.317       .  A
N328       Co365   2.074       .  S
C329        N354   1.334       .  A
C329        C367   1.448       .  S
C329        H374   1.081       .  S
H330        C371   1.081       .  S
C331        N355   1.347       .  A
C331        C335   1.466       .  S
C331        H360   1.082       .  S
Co332       N350   2.077       .  S
Co332       N340   2.087       .  S
Co332       N372   2.095       .  S
Co332       N348   2.073       .  S
Co332      Cl376   2.471       .  S
N333        C371   1.351       .  A
N333        N340   1.324       .  A
N333       Co334   2.121       .  S
Co334       N337   2.087       .  S
Co334       N354   2.069       .  S
Co334       N341   2.100       .  S
Co334      Cl376   2.442       .  S
C335        N373   1.352       .  A
C335        C457   1.491       .  S
N336        N343   1.324       .  A
N336        N366   1.326       .  A
N336       Co369   2.090       .  S
N337        N355   1.322       .  A
N337        N373   1.328       .  A
N338        C367   1.349       .  A
N338        N348   1.326       .  A
H339        C364   1.082       .  S
N340        N361   1.324       .  A
N341        N359   1.323       .  A
N341        N346   1.326       .  A
C342        N346   1.348       .  A
C342        C462   1.480       .  S
C342        C370   1.466       .  S
N343        C358   1.340       .  A
N343       Co365   2.094       .  S
C344        N372   1.345       .  A
C344        C347   1.466       .  S
C344        H378   1.081       .  S
C347        N368   1.351       .  A
C347        C485   1.487       .  S
N348        N354   1.318       .  A
N349        C375   1.336       .  A
N349        N351   1.319       .  A
N349       Co365   2.061       .  S
N350        C364   1.342       .  A
N351        N379   1.334       .  A
N351       Co369   2.125       .  S
H352        C375   1.082       .  S
H353        C370   1.081       .  S
N355       Co369   2.114       .  S
N356        N368   1.327       .  A
N356        N372   1.321       .  A
N356       Co365   2.101       .  S
C357        N361   1.347       .  A
C357        C502   1.486       .  S
C357        C371   1.473       .  S
C358        C377   1.454       .  S
C358        H362   1.081       .  S
N359        C370   1.341       .  A
N359       Co369   2.091       .  S
C363        N379   1.361       .  A
C363        C473   1.484       .  S
C363        C375   1.448       .  S
Co365      Cl376   2.435       .  S
N366        C377   1.352       .  A
C367        C498   1.457       .  S
Co369      Cl376   2.473       .  S
C377        C453   1.473       .  S
C380        N381   1.366       .  A
C380        N385   1.362       .  A
C380        C458   1.490       .  S
N381        C382   1.365       .  A
C382        N383   1.360       .  A
C382        C516   1.452       .  S
N383        C384   1.359       .  A
C384        N385   1.362       .  A
C384        C449   1.491       .  S
C386        N387   1.362       .  A
C386        N391   1.353       .  A
C386        C445   1.474       .  S
N387        C388   1.360       .  A
C388        N389   1.355       .  A
C388        C454   1.476       .  S
N389        C390   1.355       .  A
C390        N391   1.354       .  A
C390        C524   1.422       .  S
C392        N410   1.344       .  A
C392        C506   1.477       .  S
C392        C429   1.470       .  S
N393        N410   1.322       .  A
N393        N415   1.321       .  A
N393       Co430   2.079   1_655  S
C394        N419   1.339       .  A
C394        C432   1.452       .  S
C394        H439   1.081       .  S
H395        C436   1.082       .  S
C396        N420   1.341       .  A
C396        C400   1.466       .  S
C396        H425   1.081       .  S
Co397       N415   2.106   1_455  S
Co397       N405   2.071   1_465  S
Co397       N437   2.082       .  S
Co397       N413   2.108   1_565  S
Co397      Cl441   2.480       .  S
N398        C436   1.337       .  A
N398        N405   1.318       .  A
N398       Co399   2.074   1_655  S
Co399       N402   2.102   1_455  S
Co399       N419   2.090       .  S
Co399       N406   2.076       .  S
Co399      Cl441   2.428   1_545  S
C400        N438   1.351       .  A
C400        C465   1.485       .  S
N401        N408   1.320       .  A
N401        N431   1.334       .  A
N401       Co434   2.119   1_655  S
N402        N420   1.324       .  A
N402        N438   1.327       .  A
N403        C432   1.356       .  A
N403        N413   1.329       .  A
H404        C429   1.081       .  S
N405        N426   1.324       .  A
N406        N424   1.320       .  A
N406        N411   1.323       .  A
C407        N411   1.344       .  A
C407        C469   1.486       .  S
C407        C435   1.474       .  S
N408        C423   1.335       .  A
N408       Co430   2.065   1_655  S
C409        N437   1.345       .  A
C409        C412   1.462       .  S
C409        H443   1.082       .  S
C412        N433   1.346       .  A
C412        C482   1.469       .  S
N413        N419   1.324       .  A
N414        C440   1.333       .  A
N414        N416   1.323       .  A
N414       Co430   2.069       .  S
N415        C429   1.348       .  A
N416        N444   1.328       .  A
N416       Co434   2.105       .  S
H417        C440   1.081       .  S
H418        C435   1.081       .  S
N420       Co434   2.097   1_645  S
N421        N433   1.322       .  A
N421        N437   1.317       .  A
N421       Co430   2.073       .  S
C422        N426   1.347       .  A
C422        C493   1.469       .  S
C422        C436   1.459       .  S
C423        C442   1.446       .  S
C423        H427   1.082       .  S
N424        C435   1.353       .  A
N424       Co434   2.119   1_545  S
C428        N444   1.355       .  A
C428        C446   1.466       .  S
C428        C440   1.444       .  S
Co430      Cl441   2.423       .  S
N431        C442   1.359       .  A
C432        C490   1.479       .  S
Co434      Cl441   2.487       .  S
C442        C450   1.479       .  S
C445        C446   1.336       .  D
C445        H447   1.087       .  S
C446        H448   1.086       .  S
C449        C450   1.345       .  D
C449        H451   1.087       .  S
C450        H452   1.086       .  S
C453        C454   1.341       .  D
C453        H455   1.086       .  S
C454        H456   1.087       .  S
C457        C458   1.348       .  D
C457        H459   1.086       .  S
C458        H460   1.087       .  S
C461        C462   1.341       .  D
C461        H463   1.086       .  S
C462        H464   1.086       .  S
C465        C466   1.344       .  D
C465        H467   1.086       .  S
C466        H468   1.085       .  S
C469        C470   1.345       .  D
C469        H471   1.086       .  S
C470        H472   1.087       .  S
C473        C474   1.346       .  D
C473        H475   1.086       .  S
C474        H476   1.087       .  S
C477        C478   1.343       .  D
C477        H479   1.086       .  S
C478        H480   1.087       .  S
C481        C482   1.347       .  D
C481        H483   1.087       .  S
C482        H484   1.086       .  S
C485        C486   1.347       .  D
C485        H487   1.086       .  S
C486        H488   1.086       .  S
C489        C490   1.340       .  D
C489        H491   1.087       .  S
C490        H492   1.086       .  S
C493        C494   1.335       .  D
C493        H495   1.086       .  S
C494        H496   1.087       .  S
C497        C498   1.342       .  D
C497        H499   1.087       .  S
C498        H500   1.086       .  S
C501        C502   1.345       .  D
C501        H503   1.086       .  S
C502        H504   1.086       .  S
C505        C506   1.342       .  D
C505        H507   1.086       .  S
C506        H508   1.086       .  S
C509        C510   1.209       .  T
C511        C512   1.213       .  T
C513        C514   1.214       .  T
C515        C516   1.216       .  T
C517        C518   1.208       .  T
C519        C520   1.207       .  T
C521        C522   1.204       .  T
C523        C524   1.199       .  T
C525        C526   1.215       .  T
C527        C528   1.346       .  D
C527        H529   1.086       .  S
C528        H530   1.087       .  S
C531        C532   1.210       .  T
C533        C534   1.345       .  D
C533        H535   1.087       .  S
C534        H536   1.086       .  S
C537        C538   1.204       .  T
C539        C540   1.335       .  D
C539        H541   1.087       .  S
C540        H542   1.086       .  S
C543        C544   1.204       .  T
C545        C546   1.341       .  D
C545        H547   1.087       .  S
C546        H548   1.086       .  S
C549        C550   1.341       .  D
C549        H551   1.086       .  S
C550        H552   1.087       .  S
C553        C554   1.349       .  D
C553        H555   1.086       .  S
C554        H556   1.085       .  S
C557        C558   1.342       .  D
C557        H559   1.086       .  S
C558        H560   1.087       .  S
C561        C562   1.341       .  D
C561        H563   1.087       .  S
C562        H564   1.086       .  S
C565        C566   1.205       .  T
C567        C568   1.339       .  D
C567        H569   1.086       .  S
C568        H570   1.086       .  S
C571        C572   1.346       .  D
C571        H573   1.085       .  S
C572        H574   1.086       .  S
C575        C576   1.207       .  T
C577        C578   1.342       .  D
C577        H579   1.086       .  S
C578        H580   1.087       .  S
C581        C582   1.344       .  D
C581        H583   1.086       .  S
C582        H584   1.087       .  S
C585        C586   1.213       .  T
C587        C588   1.346       .  D
C587        H589   1.087       .  S
C588        H590   1.086       .  S
C591        C592   1.340       .  D
C591        H593   1.087       .  S
C592        H594   1.086       .  S
C595        C596   1.212       .  T
C597        C598   1.335       .  D
C597        H599   1.088       .  S
C598        H600   1.086       .  S
C601        C602   1.336       .  D
C601        H603   1.086       .  S
C602        H604   1.086       .  S
