geometry optimzed in LAMMPS
_audit_creation_date              2020-12-01 
_audit_creation_method            'lammps2cif' 
_symmetry_space_group_name_H-M    'P1' 
_symmetry_Int_Tables_number       1 
_symmetry_cell_setting            triclinic 
loop_ 
_symmetry_equiv_pos_as_xyz 
  x,y,z 
_cell_length_a                    50.89553134 
_cell_length_b                    50.8196373856764 
_cell_length_c                    50.83551251024019 
_cell_angle_alpha                 90.01161705263571 
_cell_angle_beta                  89.87797541916369 
_cell_angle_gamma                 90.00862404597035 
loop_ 
_atom_site_label 
_atom_site_type_symbol 
_atom_site_fract_x 
_atom_site_fract_y 
_atom_site_fract_z 
_atom_site_charge 
O1          O  0.04488551  0.47033817  0.89353353    -0.75600
O2          O  0.02772853  0.50866221  0.83033361    -0.75600
O3          O  0.00144946  0.49319184  0.87473893    -0.75700
O4          O  0.07157821  0.48665860  0.85059642    -0.75700
O5          O  0.06158460  0.44918353  0.83008645    -0.75600
O6          O  0.99032048  0.45548075  0.85518592    -0.75600
O7          O  0.01717364  0.47082755  0.81086312    -0.75600
O8          O  0.03486312  0.43287841  0.87302276    -0.75700
Ni9        Ni  0.03668752  0.49112993  0.86288123     1.25400
Ni10       Ni  0.02550848  0.45081797  0.84147036     1.25400
C11         C  0.04258975  0.44514732  0.89354758     0.86600
C12         C  0.02045420  0.49574850  0.80983661     0.86500
C13         C  0.98485562  0.47486837  0.87046699     0.86600
C14         C  0.07841490  0.46672403  0.83694854     0.86700
O15         O  0.05884573  0.40601092  0.04962805    -0.75600
O16         O  0.02018030  0.34369317  0.03044294    -0.75600
O17         O  0.04258607  0.36235549  0.07496981    -0.75700
O18         O  0.03597252  0.38879355  0.00541643    -0.75700
O19         O  0.07318777  0.36882879  0.99346973    -0.75600
O20         O  0.08010871  0.34242697  0.06418278    -0.75600
O21         O  0.05779440  0.32404026  0.01954500    -0.75600
O22         O  0.09611811  0.38588797  0.03831353    -0.75700
Ni23       Ni  0.03798435  0.37578828  0.04039648     1.25400
Ni24       Ni  0.07806158  0.35448731  0.02834803     1.25400
C25         C  0.08397016  0.40606942  0.04718213     0.86600
C26         C  0.03286031  0.32319753  0.02275445     0.86500
C27         C  0.06272510  0.34882149  0.08138735     0.86600
C28         C  0.05402074  0.38446828  0.98846877     0.86700
O29         O  0.89094116  0.48612624  0.95677280    -0.75600
O30         O  0.82889772  0.50499447  0.99612447    -0.75600
O31         O  0.84812297  0.46040403  0.97447119    -0.75700
O32         O  0.87320555  0.53024802  0.97917440    -0.75700
O33         O  0.85317797  0.54102677  0.94165894    -0.75600
O34         O  0.82708520  0.46993331  0.93723416    -0.75600
O35         O  0.80884389  0.51518129  0.95856277    -0.75600
O36         O  0.86996628  0.49573436  0.91951995    -0.75700
Ni37       Ni  0.86088598  0.49518394  0.97803007     1.25400
Ni38       Ni  0.83890899  0.50593772  0.93796958     1.25400
C39         C  0.89056612  0.48793792  0.93156126     0.86600
C40         C  0.80828174  0.51242888  0.98357501     0.86500
C41         C  0.83416237  0.45332099  0.95490616     0.86600
C42         C  0.86883505  0.54657602  0.96065201     0.86700
O43         O  0.12341669  0.56201680  0.06717556    -0.75600
O44         O  0.18440975  0.54121205  0.02686885    -0.75600
O45         O  0.13948340  0.51708810  0.04456785    -0.75700
O46         O  0.16682693  0.58627260  0.04879328    -0.75700
O47         O  0.18754686  0.57619760  0.08604156    -0.75600
O48         O  0.16017453  0.50566527  0.08151150    -0.75600
O49         O  0.20479087  0.53081990  0.06417161    -0.75600
O50         O  0.14431985  0.55130090  0.10413051    -0.75700
Ni51       Ni  0.15289994  0.55189209  0.04547433     1.25400
Ni52       Ni  0.17504572  0.54048939  0.08522218     1.25400
C53         C  0.12392709  0.56012231  0.09239141     0.86600
C54         C  0.20514230  0.53358685  0.03913440     0.86500
C55         C  0.14412926  0.50043548  0.06275958     0.86600
C56         C  0.18097034  0.59299458  0.06835987     0.86700
O57         O  0.96925056  0.57811392  0.13114265    -0.75600
O58         O  0.98814318  0.53839727  0.19254110    -0.75600
O59         O  0.94331552  0.55996710  0.17378718    -0.75700
O60         O  0.01360214  0.55624908  0.14862531    -0.75700
O61         O  0.02380781  0.59355628  0.16940908    -0.75600
O62         O  0.95250770  0.59712609  0.19518714    -0.75600
O63         O  0.99775733  0.57577610  0.21331507    -0.75600
O64         O  0.97843965  0.61539105  0.15239322    -0.75700
Ni65       Ni  0.97830924  0.55680488  0.16091908     1.25400
Ni66       Ni  0.98854955  0.59674101  0.18345268     1.25400
C67         C  0.97104835  0.60329655  0.13161212     0.86600
C68         C  0.99543915  0.55068505  0.21336096     0.86500
C69         C  0.93602968  0.57937375  0.18802237     0.86600
C70         C  0.02979059  0.57481312  0.15353524     0.86700
O71         O  0.95477051  0.63992254  0.97499708    -0.75600
O72         O  0.99296057  0.70253527  0.99361380    -0.75600
O73         O  0.97736481  0.65793546  0.01913304    -0.75700
O74         O  0.97101211  0.68313586  0.94929770    -0.75700
O75         O  0.93336433  0.70312513  0.95960660    -0.75600
O76         O  0.93991385  0.67772267  0.03064578    -0.75600
O77         O  0.95515318  0.72205829  0.00415589    -0.75600
O78         O  0.91734618  0.66009530  0.98577336    -0.75700
Ni79       Ni  0.97544823  0.67028867  0.98400554     1.25400
Ni80       Ni  0.93517086  0.69155021  0.99556594     1.25400
C81         C  0.92961372  0.63996310  0.97702411     0.86600
C82         C  0.98006865  0.72296804  0.00106155     0.86500
C83         C  0.95928013  0.66245498  0.03598160     0.86600
C84         C  0.95083768  0.69644306  0.94261046     0.86700
O85         O  0.89118938  0.55866595  0.56340952    -0.75600
O86         O  0.82794058  0.54179552  0.52516934    -0.75600
O87         O  0.84887992  0.58595084  0.54653530    -0.75700
O88         O  0.87170230  0.51481805  0.54155459    -0.75700
O89         O  0.85185259  0.50501141  0.57949864    -0.75600
O90         O  0.82790481  0.57680921  0.58399371    -0.75600
O91         O  0.80807630  0.53222664  0.56307399    -0.75600
O92         O  0.87041402  0.55011054  0.60112617    -0.75700
Ni93       Ni  0.86052217  0.55053405  0.54274765     1.25400
Ni94       Ni  0.83874198  0.54058567  0.58319585     1.25400
C95         C  0.89108326  0.55721740  0.58864409     0.86600
C96         C  0.80722122  0.53511444  0.53806880     0.86500
C97         C  0.83514692  0.59330750  0.56627490     0.86600
C98         C  0.86697509  0.49869327  0.56025159     0.86700
O99         O  0.95214449  0.40381736  0.54950731    -0.75600
O100        O  0.99219344  0.34229601  0.53024546    -0.75600
O101        O  0.97512541  0.38676780  0.50520056    -0.75700
O102        O  0.96992555  0.36068590  0.57482133    -0.75700
O103        O  0.93279905  0.33973428  0.56480139    -0.75600
O104        O  0.93814616  0.36619856  0.49375548    -0.75600
O105        O  0.95495659  0.32183067  0.51974233    -0.75600
O106        O  0.91522046  0.38280334  0.53890840    -0.75700
Ni107      Ni  0.97371112  0.37401209  0.54020575     1.25400
Ni108      Ni  0.93401712  0.35178395  0.52881292     1.25400
C109        C  0.92699309  0.40341352  0.54726251     0.86600
C110        C  0.97991975  0.32150071  0.52275268     0.86500
C111        C  0.95702749  0.38215041  0.48847413     0.86600
C112        C  0.95032995  0.34656779  0.58164694     0.86700
O113        O  0.96887598  0.46742427  0.39369826    -0.75600
O114        O  0.98923823  0.50660171  0.33229410    -0.75600
O115        O  0.94452630  0.48387388  0.34958513    -0.75700
O116        O  0.01333351  0.49057660  0.37751438    -0.75700
O117        O  0.02572952  0.45352959  0.35742754    -0.75600
O118        O  0.95562138  0.44641037  0.32965261    -0.75600
O119        O  0.00048993  0.46918157  0.31237212    -0.75600
O120        O  0.98048913  0.43015542  0.37361317    -0.75700
Ni121      Ni  0.97867544  0.48848395  0.36387004     1.25400
Ni122      Ni  0.99113416  0.44852615  0.34247672     1.25400
C123        C  0.97137923  0.44229464  0.39371646     0.86600
C124        C  0.99725198  0.49416281  0.31180376     0.86500
C125        C  0.93838739  0.46387822  0.33565180     0.86600
C126        C  0.03049693  0.47279159  0.37307659     0.86700
O127        O  0.12531792  0.48648305  0.45770011    -0.75600
O128        O  0.18788338  0.50371754  0.49657510    -0.75600
O129        O  0.14378664  0.52989121  0.48109458    -0.75700
O130        O  0.16807456  0.45995549  0.47382004    -0.75700
O131        O  0.18863169  0.47038267  0.43646687    -0.75600
O132        O  0.16355964  0.54164358  0.44367880    -0.75600
O133        O  0.20776814  0.51469091  0.45905166    -0.75600
O134        O  0.14579915  0.49722520  0.42040963    -0.75700
Ni135      Ni  0.15569143  0.49473170  0.47868044     1.25400
Ni136      Ni  0.17729609  0.50650227  0.43862470     1.25400
C137        C  0.12536183  0.48894599  0.43254812     0.86600
C138        C  0.20846611  0.51127332  0.48398773     0.86500
C139        C  0.14812339  0.54678386  0.46303491     0.86600
C140        C  0.18157076  0.45329755  0.45372316     0.86700
O141        O  0.04764783  0.57578115  0.62666478    -0.75600
O142        O  0.02893130  0.53619010  0.68861881    -0.75600
O143        O  0.00362491  0.55241346  0.64400830    -0.75700
O144        O  0.07326466  0.55872760  0.66973566    -0.75700
O145        O  0.06270293  0.59583061  0.69060539    -0.75600
O146        O  0.99182174  0.58974251  0.66382806    -0.75600
O147        O  0.01765317  0.57363229  0.70844200    -0.75600
O148        O  0.03700286  0.61289353  0.64752694    -0.75700
Ni149      Ni  0.03863734  0.55439515  0.65664432     1.25400
Ni150      Ni  0.02677655  0.59428350  0.67843814     1.25400
C151        C  0.04552428  0.60097694  0.62708980     0.86600
C152        C  0.02104938  0.54871031  0.70915444     0.86500
C153        C  0.98667997  0.57045890  0.64826709     0.86600
C154        C  0.07982626  0.57851460  0.68372359     0.86700
O155        O  0.06164990  0.64036944  0.47317696    -0.75600
O156        O  0.02240266  0.70223832  0.49212408    -0.75600
O157        O  0.04344776  0.68297638  0.44735459    -0.75700
O158        O  0.03982084  0.65824048  0.51749732    -0.75700
O159        O  0.07749994  0.67835619  0.52749053    -0.75600
O160        O  0.08051005  0.70456953  0.45633427    -0.75600
O161        O  0.05997613  0.72248633  0.50192581    -0.75600
O162        O  0.09895331  0.66176514  0.48175455    -0.75700
Ni163      Ni  0.04043849  0.67033347  0.48229332     1.25400
Ni164      Ni  0.08051754  0.69265273  0.49231205     1.25400
C165        C  0.08684007  0.64097987  0.47452441     0.86600
C166        C  0.03499823  0.72291907  0.49935601     0.86500
C167        C  0.06264244  0.69737786  0.44001478     0.86600
C168        C  0.05859334  0.66269830  0.53348355     0.86700
O169        O  0.54343216  0.58139851  0.89419528    -0.75600
O170        O  0.52433065  0.54101587  0.83290551    -0.75600
O171        O  0.56862422  0.56389449  0.85099404    -0.75700
O172        O  0.49925596  0.55783587  0.87760831    -0.75700
O173        O  0.48716734  0.59455583  0.85685697    -0.75600
O174        O  0.55809661  0.60103206  0.83022121    -0.75600
O175        O  0.51348566  0.57819360  0.81241300    -0.75600
O176        O  0.53197012  0.61819584  0.87334181    -0.75700
Ni177      Ni  0.53416758  0.55967309  0.86455434     1.25400
Ni178      Ni  0.52214672  0.59925823  0.84237179     1.25400
C179        C  0.54094832  0.60656084  0.89374823     0.86600
C180        C  0.51683597  0.55323244  0.81208523     0.86500
C181        C  0.57516051  0.58363346  0.83691165     0.86600
C182        C  0.48219045  0.57560937  0.87286187     0.86700
O183        O  0.38746700  0.56049646  0.95801242    -0.75600
O184        O  0.32571077  0.53940489  0.99679067    -0.75600
O185        O  0.37129438  0.51546181  0.98002026    -0.75700
O186        O  0.34344621  0.58463323  0.97521961    -0.75700
O187        O  0.32351038  0.57440915  0.93757744    -0.75600
O188        O  0.35146209  0.50407158  0.94260419    -0.75600
O189        O  0.30607664  0.52900118  0.95907249    -0.75600
O190        O  0.36739421  0.54986060  0.92054817    -0.75700
Ni191      Ni  0.35755036  0.55023698  0.97892215     1.25400
Ni192      Ni  0.33629810  0.53879383  0.93869112     1.25400
C193        C  0.38750421  0.55864441  0.93280532     0.86600
C194        C  0.30519043  0.53194961  0.98408322     0.86500
C195        C  0.36741130  0.49895570  0.96148180     0.86600
C196        C  0.32965333  0.59128264  0.95534258     0.86700
O197        O  0.45562922  0.40586188  0.97181950    -0.75600
O198        O  0.49421572  0.34294894  0.99035788    -0.75600
O199        O  0.47280273  0.36272935  0.94587316    -0.75700
O200        O  0.47792784  0.38754674  0.01606236    -0.75700
O201        O  0.44037307  0.36749873  0.02679438    -0.75600
O202        O  0.43532588  0.34212621  0.95558020    -0.75600
O203        O  0.45637280  0.32324664  0.00035219    -0.75600
O204        O  0.41832577  0.38506830  0.98169902    -0.75700
Ni205      Ni  0.47656876  0.37539385  0.98077707     1.25400
Ni206      Ni  0.43633392  0.35370141  0.99157691     1.25400
C207        C  0.43041773  0.40560620  0.97366330     0.86600
C208        C  0.48131451  0.32234496  0.99747186     0.86500
C209        C  0.45308351  0.34888167  0.93891285     0.86600
C210        C  0.45959912  0.38280243  0.03256282     0.86700
O211        O  0.47265021  0.46672505  0.12819918    -0.75600
O212        O  0.48887102  0.50501092  0.19168811    -0.75600
O213        O  0.51589434  0.48985817  0.14749471    -0.75700
O214        O  0.44549429  0.48265704  0.17075663    -0.75700
O215        O  0.45540931  0.44495438  0.19081259    -0.75600
O216        O  0.52728417  0.45238878  0.16729325    -0.75600
O217        O  0.49917683  0.46723353  0.21134219    -0.75600
O218        O  0.48327488  0.42931039  0.14840979    -0.75700
Ni219      Ni  0.48049867  0.48746536  0.15896644     1.25400
Ni220      Ni  0.49179918  0.44720162  0.18030790     1.25400
C221        C  0.47511608  0.44155454  0.12802557     0.86600
C222        C  0.49567996  0.49215381  0.21237507     0.86500
C223        C  0.53270859  0.47178575  0.15199023     0.86600
C224        C  0.43850593  0.46239236  0.18381708     0.86700
O225        O  0.56033503  0.64127655  0.04781675    -0.75600
O226        O  0.52326975  0.70543343  0.03114497    -0.75600
O227        O  0.53913224  0.66169906  0.00404946    -0.75700
O228        O  0.54352118  0.68361916  0.07532504    -0.75700
O229        O  0.58125745  0.70428898  0.06689328    -0.75600
O230        O  0.57752537  0.68089942  0.99484847    -0.75600
O231        O  0.56152239  0.72477811  0.02206902    -0.75600
O232        O  0.59828081  0.66185163  0.04001119    -0.75700
Ni233      Ni  0.54013435  0.67241790  0.03980794     1.25400
Ni234      Ni  0.58093879  0.69375585  0.03053685     1.25400
C235        C  0.58557554  0.64122354  0.04673169     0.86600
C236        C  0.53654565  0.72596414  0.02456330     0.86500
C237        C  0.55802151  0.66632753  0.98816770     0.86600
C238        C  0.56322744  0.69706339  0.08308527     0.86700
O239        O  0.62671917  0.48508373  0.06582760    -0.75600
O240        O  0.68816779  0.50491026  0.02601011    -0.75600
O241        O  0.67063057  0.46049247  0.04910775    -0.75700
O242        O  0.64289410  0.52924076  0.04191500    -0.75700
O243        O  0.66239644  0.54197092  0.07903290    -0.75600
O244        O  0.69100854  0.47179831  0.08618780    -0.75600
O245        O  0.70778934  0.51689265  0.06327093    -0.75600
O246        O  0.64708135  0.49670676  0.10283993    -0.75700
Ni247      Ni  0.65650749  0.49462099  0.04435967     1.25400
Ni248      Ni  0.67788664  0.50741796  0.08409990     1.25400
C249        C  0.62689793  0.48758934  0.09098573     0.86600
C250        C  0.70855856  0.51320995  0.03837289     0.86500
C251        C  0.68472726  0.45441847  0.06892694     0.86600
C252        C  0.64669461  0.54649755  0.05974845     0.86700
O253        O  0.45296384  0.64075132  0.54928390    -0.75600
O254        O  0.49130215  0.70344633  0.53037008    -0.75600
O255        O  0.46939045  0.68449187  0.57463280    -0.75700
O256        O  0.47577594  0.65836207  0.50528769    -0.75700
O257        O  0.43795078  0.67724100  0.49377419    -0.75600
O258        O  0.43202923  0.70491592  0.56435689    -0.75600
O259        O  0.45355195  0.72264170  0.51926835    -0.75600
O260        O  0.41543684  0.66097559  0.53917191    -0.75700
Ni261      Ni  0.47372996  0.67117395  0.54017026     1.25400
Ni262      Ni  0.43344584  0.69224779  0.52860942     1.25400
C263        C  0.42780023  0.64061616  0.54720312     0.86600
C264        C  0.47840090  0.72384305  0.52285919     0.86500
C265        C  0.44978278  0.69869219  0.58118582     0.86600
C266        C  0.45733862  0.66181152  0.48867566     0.86700
O267        O  0.46692460  0.57313073  0.39603029    -0.75600
O268        O  0.48496292  0.53340723  0.33379651    -0.75600
O269        O  0.51075231  0.54992926  0.37822127    -0.75700
O270        O  0.44071975  0.55614177  0.35308234    -0.75700
O271        O  0.45129866  0.59312800  0.33199322    -0.75600
O272        O  0.52207971  0.58721888  0.35797085    -0.75600
O273        O  0.49597713  0.57079659  0.31374616    -0.75600
O274        O  0.47710582  0.61024476  0.37489801    -0.75700
Ni275      Ni  0.47554613  0.55173606  0.36589104     1.25400
Ni276      Ni  0.48711029  0.59158455  0.34382427     1.25400
C277        C  0.46905703  0.59831917  0.39553384     0.86600
C278        C  0.49269755  0.54583601  0.31313792     0.86500
C279        C  0.52747509  0.56809970  0.37356393     0.86600
C280        C  0.43418602  0.57594685  0.33907200     0.86700
O281        O  0.62318076  0.55970893  0.45804983    -0.75600
O282        O  0.68598459  0.54308937  0.49697068    -0.75600
O283        O  0.66591750  0.58666360  0.47411148    -0.75700
O284        O  0.64182613  0.51653354  0.48149959    -0.75700
O285        O  0.66130599  0.50483469  0.44392704    -0.75600
O286        O  0.68676991  0.57603835  0.43698957    -0.75600
O287        O  0.70572992  0.53166199  0.45953430    -0.75600
O288        O  0.64380933  0.54928163  0.42074639    -0.75700
Ni289      Ni  0.65365360  0.55178823  0.47904276     1.25400
Ni290      Ni  0.67526434  0.53995370  0.43903206     1.25400
C291        C  0.62321092  0.55710721  0.43290775     0.86600
C292        C  0.70657319  0.53541423  0.48443215     0.86500
C293        C  0.67975999  0.59319912  0.45420172     0.86600
C294        C  0.64583313  0.49971701  0.46326659     0.86700
O295        O  0.55837566  0.40648672  0.47351409    -0.75600
O296        O  0.51917188  0.34462778  0.49295648    -0.75600
O297        O  0.53542526  0.38944081  0.51778090    -0.75700
O298        O  0.54137167  0.36309232  0.44831771    -0.75700
O299        O  0.57847481  0.34226778  0.45873523    -0.75600
O300        O  0.57287092  0.36977149  0.52927645    -0.75600
O301        O  0.55661942  0.32491182  0.50412662    -0.75600
O302        O  0.59560210  0.38570738  0.48372152    -0.75700
Ni303      Ni  0.53719491  0.37650584  0.48285372     1.25400
Ni304      Ni  0.57716016  0.35483102  0.49447392     1.25400
C305        C  0.58353723  0.40611895  0.47542006     0.86600
C306        C  0.53170095  0.32420514  0.50099683     0.86500
C307        C  0.55363079  0.38530813  0.53451093     0.86600
C308        C  0.56112681  0.34909583  0.44172191     0.86700
O309        O  0.54450001  0.47089662  0.62949841    -0.75600
O310        O  0.52671926  0.51005363  0.69194930    -0.75600
O311        O  0.57105779  0.48796098  0.67220942    -0.75700
O312        O  0.50070596  0.49342293  0.64785441    -0.75700
O313        O  0.49005260  0.45594752  0.66815154    -0.75600
O314        O  0.56128718  0.45071548  0.69321937    -0.75600
O315        O  0.51651609  0.47252655  0.71218208    -0.75600
O316        O  0.53491759  0.43353937  0.65046564    -0.75700
Ni317      Ni  0.53603848  0.49198574  0.65979501     1.25400
Ni318      Ni  0.52524228  0.45191800  0.68185838     1.25400
C319        C  0.54239900  0.44571584  0.62974503     0.86600
C320        C  0.51930211  0.49755969  0.71266422     0.86500
C321        C  0.57806445  0.46821067  0.68606715     0.86600
C322        C  0.48430701  0.47499952  0.65260348     0.86700
O323        O  0.38992906  0.48386500  0.56686788    -0.75600
O324        O  0.32839289  0.50244345  0.52686595    -0.75600
O325        O  0.37301708  0.52769062  0.54296077    -0.75700
O326        O  0.34649743  0.45829095  0.55008162    -0.75700
O327        O  0.32591063  0.46929169  0.58721245    -0.75600
O328        O  0.35252277  0.54013531  0.57975009    -0.75600
O329        O  0.30813387  0.51382125  0.56405628    -0.75600
O330        O  0.36916262  0.49559649  0.60368650    -0.75700
Ni331      Ni  0.36007990  0.49274263  0.54533626     1.25400
Ni332      Ni  0.33811085  0.50521943  0.58494635     1.25400
C333        C  0.38965505  0.48688287  0.59196659     0.86600
C334        C  0.30774776  0.51038454  0.53912255     0.86500
C335        C  0.36833802  0.54496249  0.56060439     0.86600
C336        C  0.33234328  0.45201770  0.56987953     0.86700
O337        O  0.55869383  0.90774479  0.55016584    -0.75600
O338        O  0.51905201  0.84532964  0.53291513    -0.75600
O339        O  0.54139236  0.86524710  0.57681131    -0.75700
O340        O  0.53546853  0.88936911  0.50660296    -0.75700
O341        O  0.57295045  0.86949428  0.49547578    -0.75600
O342        O  0.57819447  0.84362146  0.56678160    -0.75600
O343        O  0.55638595  0.82527691  0.52185084    -0.75600
O344        O  0.59576043  0.88635376  0.54057501    -0.75700
Ni345      Ni  0.53726872  0.87753847  0.54189320     1.25400
Ni346      Ni  0.57708705  0.85533648  0.53068179     1.25400
C347        C  0.58388066  0.90712028  0.54830583     0.86600
C348        C  0.53148243  0.82465925  0.52523335     0.86500
C349        C  0.56087625  0.85105456  0.58366670     0.86600
C350        C  0.55372891  0.88493903  0.48993226     0.86700
O351        O  0.54400467  0.96959667  0.39403948    -0.75600
O352        O  0.52577643  0.00803183  0.33134515    -0.75600
O353        O  0.50016303  0.99221454  0.37595567    -0.75700
O354        O  0.57004962  0.98602168  0.35067456    -0.75700
O355        O  0.55990666  0.94855304  0.33027329    -0.75600
O356        O  0.48894992  0.95444384  0.35662009    -0.75600
O357        O  0.51503319  0.97025478  0.31188253    -0.75600
O358        O  0.53408146  0.93198593  0.37372392    -0.75700
Ni359      Ni  0.53528917  0.99035462  0.36358401     1.25400
Ni360      Ni  0.52400297  0.95002503  0.34230432     1.25400
C361        C  0.54191740  0.94440397  0.39413498     0.86600
C362        C  0.51819072  0.99522611  0.31092245     0.86500
C363        C  0.48352829  0.97384762  0.37191393     0.86600
C364        C  0.57679658  0.96614266  0.33686082     0.86700
O365        O  0.45460234  0.14061181  0.47342706    -0.75600
O366        O  0.49199811  0.20377560  0.49219118    -0.75600
O367        O  0.47707450  0.15885448  0.51731490    -0.75700
O368        O  0.47035924  0.18428992  0.44770858    -0.75700
O369        O  0.43270675  0.20423221  0.45804513    -0.75600
O370        O  0.43904368  0.17742860  0.52885443    -0.75600
O371        O  0.45396475  0.22254834  0.50324442    -0.75600
O372        O  0.41682606  0.16048688  0.48357882    -0.75700
Ni373      Ni  0.47490412  0.17132538  0.48234834     1.25400
Ni374      Ni  0.43433133  0.19197077  0.49392904     1.25400
C375        C  0.42944404  0.14031165  0.47547795     0.86600
C376        C  0.47887245  0.22386230  0.50017992     0.86500
C377        C  0.45875754  0.16252030  0.53409208     0.86600
C378        C  0.45033466  0.19783325  0.44106349     0.86700
O379        O  0.38909737  0.98463097  0.45787170    -0.75600
O380        O  0.32787065  0.00455073  0.49763649    -0.75600
O381        O  0.34540142  0.95996897  0.47503550    -0.75700
O382        O  0.37278117  0.02888173  0.48111255    -0.75700
O383        O  0.35304243  0.04090745  0.44385863    -0.75600
O384        O  0.32462182  0.97075527  0.43801797    -0.75600
O385        O  0.30791989  0.01612885  0.46043070    -0.75600
O386        O  0.36845678  0.99539834  0.42073460    -0.75700
Ni387      Ni  0.35938120  0.99419898  0.47926815     1.25400
Ni388      Ni  0.33767221  0.00633250  0.43947571     1.25400
C389        C  0.38882708  0.98686588  0.43271228     0.86600
C390        C  0.30739865  0.01275975  0.48538777     0.86500
C391        C  0.33112556  0.95364092  0.45542593     0.86600
C392        C  0.36880068  0.04576365  0.46297848     0.86700
O393        O  0.47044300  0.07735746  0.62885102    -0.75600
O394        O  0.48865599  0.03879660  0.69131862    -0.75600
O395        O  0.44423000  0.06021723  0.67163962    -0.75700
O396        O  0.51440324  0.05526276  0.64712732    -0.75700
O397        O  0.52485507  0.09306476  0.66687851    -0.75600
O398        O  0.45356840  0.09765094  0.69252202    -0.75600
O399        O  0.49865016  0.07658889  0.71117165    -0.75600
O400        O  0.47953642  0.11497301  0.64959076    -0.75700
Ni401      Ni  0.47916990  0.05651733  0.65914941     1.25400
Ni402      Ni  0.48961573  0.09686683  0.68088413     1.25400
C403        C  0.47205803  0.10256971  0.62905513     0.86600
C404        C  0.49594798  0.05156807  0.71186355     0.86500
C405        C  0.43702515  0.07990670  0.68546419     0.86600
C406        C  0.53070748  0.07380965  0.65155607     0.86700
O407        O  0.62557350  0.06140812  0.56646086    -0.75600
O408        O  0.68775701  0.04247308  0.52741878    -0.75600
O409        O  0.64283628  0.01740742  0.54319764    -0.75700
O410        O  0.66910601  0.08670831  0.54987994    -0.75700
O411        O  0.68920054  0.07611567  0.58732328    -0.75600
O412        O  0.66231781  0.00534036  0.58056773    -0.75600
O413        O  0.70730548  0.03132764  0.56497579    -0.75600
O414        O  0.64575117  0.05036232  0.60374694    -0.75700
Ni415      Ni  0.65573246  0.05227592  0.54536933     1.25400
Ni416      Ni  0.67697425  0.04023930  0.58543173     1.25400
C417        C  0.62553429  0.05902665  0.59162801     0.86600
C418        C  0.70821850  0.03479626  0.54005033     0.86500
C419        C  0.64672624  0.00046922  0.56129965     0.86600
C420        C  0.68285883  0.09319272  0.56979897     0.86700
O421        O  0.45347338  0.90795520  0.05241529    -0.75600
O422        O  0.49520487  0.84746048  0.03262823    -0.75600
O423        O  0.47789834  0.89236172  0.00806069    -0.75700
O424        O  0.47158917  0.86469413  0.07705990    -0.75700
O425        O  0.43495431  0.84349438  0.06581365    -0.75600
O426        O  0.44183011  0.87091591  0.99537321    -0.75600
O427        O  0.45843883  0.82670505  0.02110684    -0.75600
O428        O  0.41745061  0.88638253  0.04001380    -0.75700
Ni429      Ni  0.47593171  0.87879542  0.04283106     1.25400
Ni430      Ni  0.43696152  0.85604156  0.03005167     1.25400
C431        C  0.42839858  0.90692257  0.04947115     0.86600
C432        C  0.48329553  0.82660864  0.02460943     0.86500
C433        C  0.46049518  0.88729223  0.99071950     0.86600
C434        C  0.45196681  0.85029705  0.08318682     0.86700
O435        O  0.38947176  0.05902158  0.06513141    -0.75600
O436        O  0.32634805  0.04118831  0.02771060    -0.75600
O437        O  0.34712457  0.08589480  0.04782463    -0.75700
O438        O  0.36996836  0.01471249  0.04459131    -0.75700
O439        O  0.35059595  0.00615677  0.08311835    -0.75600
O440        O  0.32607802  0.07761632  0.08545644    -0.75600
O441        O  0.30668906  0.03235341  0.06593159    -0.75600
O442        O  0.36870832  0.05169829  0.10314257    -0.75700
Ni443      Ni  0.35882994  0.05042368  0.04487053     1.25400
Ni444      Ni  0.33718790  0.04155442  0.08569397     1.25400
C445        C  0.38937901  0.05814520  0.09036729     0.86600
C446        C  0.30579667  0.03463520  0.04088740     0.86500
C447        C  0.33327187  0.09366072  0.06733132     0.86600
C448        C  0.36549495  0.99930214  0.06392433     0.86700
O449        O  0.46989817  0.97119544  0.89438666    -0.75600
O450        O  0.48823832  0.00974889  0.83194482    -0.75600
O451        O  0.44395802  0.98726404  0.85089086    -0.75700
O452        O  0.51370931  0.99401463  0.87648771    -0.75700
O453        O  0.52532405  0.95647420  0.85688173    -0.75600
O454        O  0.45469303  0.94993070  0.83050132    -0.75600
O455        O  0.49941565  0.97218034  0.81227850    -0.75600
O456        O  0.48046350  0.93371265  0.87413433    -0.75700
Ni457      Ni  0.47863023  0.99194218  0.86400563     1.25400
Ni458      Ni  0.49045361  0.95178604  0.84263491     1.25400
C459        C  0.47243506  0.94606989  0.89456405     0.86600
C460        C  0.49613426  0.99714412  0.81150660     0.86500
C461        C  0.43757426  0.96736128  0.83692734     0.86600
C462        C  0.53050867  0.97580186  0.87229209     0.86700
O463        O  0.54529351  0.07456414  0.12757595    -0.75600
O464        O  0.52687389  0.03615072  0.19025994    -0.75600
O465        O  0.50158381  0.05140666  0.14547771    -0.75700
O466        O  0.57102090  0.05876930  0.17116250    -0.75700
O467        O  0.56008870  0.09619822  0.19128191    -0.75600
O468        O  0.48965985  0.08898924  0.16482593    -0.75600
O469        O  0.51545269  0.07380000  0.20962127    -0.75600
O470        O  0.53444014  0.11204517  0.14769444    -0.75700
Ni471      Ni  0.53651153  0.05382841  0.15804215     1.25400
Ni472      Ni  0.52439705  0.09404119  0.17916079     1.25400
C473        C  0.54283785  0.09971307  0.12741692     0.86600
C474        C  0.51884624  0.04886255  0.21060448     0.86500
C475        C  0.48465577  0.06949143  0.14957104     0.86600
C476        C  0.57729854  0.07886031  0.18485871     0.86700
O477        O  0.56155629  0.13925712  0.97152270    -0.75600
O478        O  0.52193855  0.20090794  0.99082441    -0.75600
O479        O  0.54459901  0.18268479  0.94652994    -0.75700
O480        O  0.53821646  0.15592605  0.01568561    -0.75700
O481        O  0.57542186  0.17581337  0.02761325    -0.75600
O482        O  0.58161698  0.20353553  0.95724781    -0.75600
O483        O  0.55921111  0.22078247  0.00229019    -0.75600
O484        O  0.59863697  0.15997148  0.98231211    -0.75700
Ni485      Ni  0.54020073  0.16908459  0.98086453     1.25400
Ni486      Ni  0.57999046  0.19085391  0.99290695     1.25400
C487        C  0.58669235  0.13957661  0.97373093     0.86600
C488        C  0.53433808  0.22148815  0.99870679     0.86500
C489        C  0.56428460  0.19686918  0.94016663     0.86600
C490        C  0.55627974  0.16006553  0.03256556     0.86700
O491        O  0.62454408  0.98468346  0.95836009    -0.75600
O492        O  0.68631588  0.00295519  0.99783740    -0.75600
O493        O  0.64256894  0.02881762  0.98046509    -0.75700
O494        O  0.66702450  0.95850029  0.97630124    -0.75700
O495        O  0.68878888  0.96800060  0.93936772    -0.75600
O496        O  0.66284412  0.03906281  0.94285446    -0.75600
O497        O  0.70672225  0.01320963  0.96039278    -0.75600
O498        O  0.64597608  0.99355169  0.92107476    -0.75700
Ni499      Ni  0.65447745  0.99348669  0.97963230     1.25400
Ni500      Ni  0.67692522  0.00389269  0.93963801     1.25400
C501        C  0.62514003  0.98628222  0.93315614     0.86600
C502        C  0.70706431  0.01026617  0.98538318     0.86500
C503        C  0.64721885  0.04499067  0.96180591     0.86600
C504        C  0.68160113  0.95148293  0.95708555     0.86700
O505        O  0.95137914  0.14067581  0.04981371    -0.75600
O506        O  0.99070585  0.20267254  0.03106042    -0.75600
O507        O  0.96883207  0.18340026  0.07554276    -0.75700
O508        O  0.97391358  0.15845832  0.00567774    -0.75700
O509        O  0.93644321  0.17846831  0.99480287    -0.75600
O510        O  0.93162729  0.20445447  0.06592535    -0.75600
O511        O  0.95325307  0.22281763  0.02072276    -0.75600
O512        O  0.91406467  0.16156587  0.04024053    -0.75700
Ni513      Ni  0.97258431  0.17071132  0.04077544     1.25400
Ni514      Ni  0.93256751  0.19270118  0.02993852     1.25400
C515        C  0.92619671  0.14100978  0.04815227     0.86600
C516        C  0.97824707  0.22332356  0.02350919     0.86500
C517        C  0.94909536  0.19715877  0.08261039     0.86600
C518        C  0.95557069  0.16293044  0.98921366     0.86700
O519        O  0.89034790  0.98571724  0.06460992    -0.75600
O520        O  0.82740323  0.00267039  0.02634388    -0.75600
O521        O  0.87097973  0.02940273  0.04254308    -0.75700
O522        O  0.84827637  0.95854124  0.04767575    -0.75700
O523        O  0.82733808  0.96765576  0.08515655    -0.75600
O524        O  0.85132008  0.03960085  0.08047018    -0.75600
O525        O  0.80758308  0.01244125  0.06424538    -0.75600
O526        O  0.86946977  0.99453181  0.10223969    -0.75700
Ni527      Ni  0.85983656  0.99385333  0.04387775     1.25400
Ni528      Ni  0.83806648  0.00401613  0.08430283     1.25400
C529        C  0.89004810  0.98719744  0.08983135     0.86600
C530        C  0.80681521  0.00964353  0.03926229     0.86500
C531        C  0.86648708  0.04567461  0.06115321     0.86600
C532        C  0.83483347  0.95110125  0.06754502     0.86700
O533        O  0.04400185  0.96941187  0.12849263    -0.75600
O534        O  0.02660318  0.00829781  0.19105631    -0.75600
O535        O  0.07034100  0.98585880  0.17119976    -0.75700
O536        O  0.00059934  0.99262237  0.14690134    -0.75700
O537        O  0.98909275  0.95494659  0.16629618    -0.75600
O538        O  0.06005686  0.94870421  0.19217576    -0.75600
O539        O  0.01537054  0.97078478  0.21079618    -0.75600
O540        O  0.03391888  0.93205511  0.14923425    -0.75700
Ni541      Ni  0.03565195  0.99043295  0.15882856     1.25400
Ni542      Ni  0.02408538  0.95033888  0.18048346     1.25400
C543        C  0.04194041  0.94422869  0.12874243     0.86600
C544        C  0.01896307  0.99568772  0.21160089     0.86500
C545        C  0.07702592  0.96602300  0.18500222     0.86600
C546        C  0.98390553  0.97433321  0.15092672     0.86700
O547        O  0.06099505  0.90485304  0.97408020    -0.75600
O548        O  0.02142838  0.84325926  0.99277200    -0.75600
O549        O  0.03778773  0.88770279  0.01791637    -0.75700
O550        O  0.04399588  0.86171329  0.94850590    -0.75700
O551        O  0.08092136  0.84065162  0.95913566    -0.75600
O552        O  0.07511915  0.86785022  0.02957506    -0.75600
O553        O  0.05870090  0.82329495  0.00413967    -0.75600
O554        O  0.09814647  0.88398036  0.98441844    -0.75700
Ni555      Ni  0.03967652  0.87499421  0.98300767     1.25400
Ni556      Ni  0.07950335  0.85309729  0.99481211     1.25400
C557        C  0.08610406  0.90451175  0.97637741     0.86600
C558        C  0.03380576  0.82275976  0.00078772     0.86500
C559        C  0.05593664  0.88346774  0.03466100     0.86600
C560        C  0.06359636  0.84742817  0.94210461     0.86700
O561        O  0.12328627  0.06049702  0.95981151    -0.75600
O562        O  0.18506257  0.04239932  0.99976071    -0.75600
O563        O  0.16607903  0.08638906  0.97715797    -0.75700
O564        O  0.14101636  0.01661315  0.98329910    -0.75700
O565        O  0.16146451  0.00489303  0.94623273    -0.75600
O566        O  0.18712095  0.07587433  0.94010504    -0.75600
O567        O  0.20536375  0.03134360  0.96249308    -0.75600
O568        O  0.14443106  0.04958576  0.92295882    -0.75700
Ni569      Ni  0.15320726  0.05173620  0.98139289     1.25400
Ni570      Ni  0.17542394  0.03993172  0.94168549     1.25400
C571        C  0.12386398  0.05816495  0.93462892     0.86600
C572        C  0.20577212  0.03475288  0.98741271     0.86500
C573        C  0.18019928  0.09290826  0.95746137     0.86600
C574        C  0.14581107  0.99968482  0.96536801     0.86700
O575        O  0.96996572  0.07796179  0.89500881    -0.75600
O576        O  0.98850213  0.03865573  0.83296866    -0.75600
O577        O  0.01410766  0.05536466  0.87732974    -0.75700
O578        O  0.94416282  0.06082580  0.85224797    -0.75700
O579        O  0.95404629  0.09809459  0.83128752    -0.75600
O580        O  0.02507927  0.09277903  0.85709624    -0.75600
O581        O  0.99885306  0.07614381  0.81272782    -0.75600
O582        O  0.97992330  0.11530408  0.87420871    -0.75700
Ni583      Ni  0.97894742  0.05681087  0.86497777     1.25400
Ni584      Ni  0.98999666  0.09685238  0.84297708     1.25400
C585        C  0.97172599  0.10316146  0.89468291     0.86600
C586        C  0.99577501  0.05113485  0.81220461     0.86500
C587        C  0.03060222  0.07372981  0.87274876     0.86600
C588        C  0.93725537  0.08060762  0.83842336     0.86700
O589        O  0.04645626  0.07561862  0.39453784    -0.75600
O590        O  0.02850641  0.03681697  0.33207639    -0.75600
O591        O  0.07246072  0.05978503  0.35098995    -0.75700
O592        O  0.00296068  0.05211985  0.37688281    -0.75700
O593        O  0.99083861  0.08950617  0.35734594    -0.75600
O594        O  0.06151908  0.09719692  0.33093064    -0.75600
O595        O  0.01713965  0.07440927  0.31261394    -0.75600
O596        O  0.03538997  0.11299047  0.37437091    -0.75700
Ni597      Ni  0.03792734  0.05469687  0.36419534     1.25400
Ni598      Ni  0.02569867  0.09479619  0.34299095     1.25400
C599        C  0.04372560  0.10073644  0.39466389     0.86600
C600        C  0.02062170  0.04948972  0.31170183     0.86500
C601        C  0.07877859  0.07992225  0.33735030     0.86600
C602        C  0.98592587  0.07008476  0.37277116     0.86700
O603        O  0.89156331  0.05943182  0.45892962    -0.75600
O604        O  0.82892997  0.04257444  0.49818162    -0.75600
O605        O  0.87289786  0.01617545  0.48237098    -0.75700
O606        O  0.84894994  0.08620100  0.47542746    -0.75700
O607        O  0.82792764  0.07583187  0.43839972    -0.75600
O608        O  0.85341553  0.00466162  0.44481767    -0.75600
O609        O  0.80911617  0.03132660  0.46079269    -0.75600
O610        O  0.87075962  0.04933805  0.42169524    -0.75700
Ni611      Ni  0.86117311  0.05137963  0.48010569     1.25400
Ni612      Ni  0.83944698  0.03978069  0.44015229     1.25400
C613        C  0.89134335  0.05718219  0.43375773     0.86600
C614        C  0.80835781  0.03492012  0.48570824     0.86500
C615        C  0.86875217  0.99940685  0.46416329     0.86600
C616        C  0.83512033  0.09286041  0.45562854     0.86700
O617        O  0.95475484  0.90528459  0.47369869    -0.75600
O618        O  0.99368931  0.84310243  0.49190783    -0.75600
O619        O  0.97128734  0.86210243  0.44773228    -0.75700
O620        O  0.97787357  0.88766312  0.51746842    -0.75700
O621        O  0.94041397  0.86805091  0.52919897    -0.75600
O622        O  0.93413491  0.84138291  0.45835297    -0.75600
O623        O  0.95619243  0.82341098  0.50319985    -0.75600
O624        O  0.91744875  0.88463296  0.48410793    -0.75700
Ni625      Ni  0.97578840  0.87513175  0.48240042     1.25400
Ni626      Ni  0.93577109  0.85354082  0.49423236     1.25400
C627        C  0.92962496  0.90504888  0.47594186     0.86600
C628        C  0.98107321  0.82264842  0.49975193     0.86500
C629        C  0.95146715  0.84817309  0.44122707     0.86600
C630        C  0.95976181  0.88346446  0.53436686     0.86700
O631        O  0.06109668  0.13928246  0.55072660    -0.75600
O632        O  0.02232735  0.20147682  0.53179342    -0.75600
O633        O  0.03805470  0.15657006  0.50678842    -0.75700
O634        O  0.04480618  0.18290782  0.57613192    -0.75700
O635        O  0.08209710  0.20332156  0.56540486    -0.75600
O636        O  0.07550384  0.17609185  0.49486989    -0.75600
O637        O  0.05985925  0.22107893  0.52049604    -0.75600
O638        O  0.09845940  0.15964447  0.54001146    -0.75700
Ni639      Ni  0.04019311  0.16947660  0.54167707     1.25400
Ni640      Ni  0.08026504  0.19084615  0.52966631     1.25400
C641        C  0.08622361  0.13933600  0.54842287     0.86600
C642        C  0.03493435  0.22189113  0.52380736     0.86500
C643        C  0.05614491  0.16065815  0.48984851     0.86600
C644        C  0.06468040  0.19681674  0.58253162     0.86700
O645        O  0.12550397  0.98380372  0.56663055    -0.75600
O646        O  0.18765411  0.00307159  0.52760934    -0.75600
O647        O  0.16900827  0.95851954  0.55007833    -0.75700
O648        O  0.14277086  0.02787622  0.54346437    -0.75700
O649        O  0.16241284  0.03992940  0.58076998    -0.75600
O650        O  0.18898798  0.96921482  0.58757535    -0.75600
O651        O  0.20716756  0.01404212  0.56525893    -0.75600
O652        O  0.14569948  0.99504845  0.60385251    -0.75700
Ni653      Ni  0.15565997  0.99301150  0.54554558     1.25400
Ni654      Ni  0.17690184  0.00507030  0.58562522     1.25400
C655        C  0.12547890  0.98634213  0.59178621     0.86600
C656        C  0.20799662  0.01099968  0.54029274     0.86500
C657        C  0.18247783  0.95205307  0.57020440     0.86600
C658        C  0.14686494  0.04484531  0.56150763     0.86700
O659        O  0.97071383  0.96877635  0.62940528    -0.75600
O660        O  0.98826323  0.00803959  0.69177638    -0.75600
O661        O  0.01438695  0.99156963  0.64758464    -0.75700
O662        O  0.94427125  0.98564706  0.67228161    -0.75700
O663        O  0.95418671  0.94836660  0.69312618    -0.75600
O664        O  0.02534148  0.95421144  0.66789105    -0.75600
O665        O  0.99860497  0.97058849  0.71202953    -0.75600
O666        O  0.98064608  0.93146455  0.65022820    -0.75700
Ni667      Ni  0.97913235  0.98989872  0.65966928     1.25400
Ni668      Ni  0.99018205  0.94988742  0.68166297     1.25400
C669        C  0.97288049  0.94360024  0.62960632     0.86600
C670        C  0.99549630  0.99559575  0.71254531     0.86500
C671        C  0.03090645  0.97327203  0.65227086     0.86600
C672        C  0.93738483  0.96585158  0.68614742     0.86700
O673        O  0.71802560  0.65705622  0.81134240    -0.75600
O674        O  0.73656317  0.59422442  0.77327716    -0.75600
O675        O  0.69193441  0.61378864  0.79519485    -0.75700
O676        O  0.76192933  0.63891376  0.78900126    -0.75700
O677        O  0.77284792  0.61941852  0.82677670    -0.75600
O678        O  0.70195486  0.59350934  0.83274810    -0.75600
O679        O  0.74701123  0.57487489  0.81117391    -0.75600
O680        O  0.72785674  0.63672614  0.84897068    -0.75700
Ni681      Ni  0.72679708  0.62653521  0.79076891     1.25400
Ni682      Ni  0.73787303  0.60529252  0.83118162     1.25400
C683        C  0.72014177  0.65712687  0.83650053     0.86600
C684        C  0.74438944  0.57394495  0.78617814     0.86500
C685        C  0.68505570  0.60039093  0.81532489     0.86600
C686        C  0.77837671  0.63475370  0.80746952     0.86700
O687        O  0.87410010  0.71977229  0.80020179    -0.75600
O688        O  0.93751718  0.75738968  0.78245156    -0.75600
O689        O  0.89265051  0.74280146  0.75669953    -0.75700
O690        O  0.91752232  0.73507207  0.82641783    -0.75700
O691        O  0.93724085  0.69733759  0.81582708    -0.75600
O692        O  0.91167629  0.70502631  0.74488499    -0.75600
O693        O  0.95642917  0.71940811  0.77138390    -0.75600
O694        O  0.89391589  0.68212112  0.78943032    -0.75700
Ni695      Ni  0.90490251  0.74017599  0.79176025     1.25400
Ni696      Ni  0.92561674  0.69969219  0.77987262     1.25400
C697        C  0.87368742  0.69463214  0.79755769     0.86600
C698        C  0.95776152  0.74430982  0.77477713     0.86500
C699        C  0.89658415  0.72463985  0.73980585     0.86600
C700        C  0.93078525  0.71479538  0.83293606     0.86700
O701        O  0.63848250  0.83108470  0.72413335    -0.75600
O702        O  0.57721323  0.79185313  0.74509839    -0.75600
O703        O  0.59468979  0.81365170  0.70004481    -0.75700
O704        O  0.62245731  0.80861386  0.76897393    -0.75700
O705        O  0.60250485  0.84589231  0.78077785    -0.75600
O706        O  0.57445213  0.85115048  0.71040687    -0.75600
O707        O  0.55734612  0.82942535  0.75585137    -0.75600
O708        O  0.61817864  0.86839752  0.73508212    -0.75700
Ni709      Ni  0.60881146  0.80992529  0.73430375     1.25400
Ni710      Ni  0.58729835  0.84999857  0.74606306     1.25400
C711        C  0.63836482  0.85627278  0.72623744     0.86600
C712        C  0.55667543  0.80443691  0.75276965     0.86500
C713        C  0.58063822  0.83337685  0.69349769     0.86600
C714        C  0.61840601  0.82688481  0.78573702     0.86700
O715        O  0.70534224  0.81330612  0.87873827    -0.75600
O716        O  0.74525774  0.79164573  0.93923330    -0.75600
O717        O  0.72839561  0.76843658  0.89378436    -0.75700
O718        O  0.72257981  0.83675556  0.92308456    -0.75700
O719        O  0.68557957  0.82533103  0.94366983    -0.75600
O720        O  0.69134409  0.75605047  0.91380331    -0.75600
O721        O  0.70812809  0.77973873  0.95922944    -0.75600
O722        O  0.66833414  0.80184396  0.89931953    -0.75700
Ni723      Ni  0.72676474  0.80285522  0.90809829     1.25400
Ni724      Ni  0.68708084  0.79019581  0.92981980     1.25400
C725        C  0.68020804  0.81110387  0.87911906     0.86600
C726        C  0.73308770  0.78296217  0.95962698     0.86500
C727        C  0.71031176  0.75146737  0.89776565     0.86600
C728        C  0.70292261  0.84263693  0.93758663     0.86700
O729        O  0.81142314  0.73483040  0.64473833    -0.75600
O730        O  0.77312871  0.75286307  0.58199292    -0.75600
O731        O  0.79623450  0.70903300  0.60084644    -0.75700
O732        O  0.78760620  0.77830705  0.62708997    -0.75700
O733        O  0.82505309  0.79095703  0.60805424    -0.75600
O734        O  0.83352764  0.72045004  0.58082565    -0.75600
O735        O  0.81064391  0.76497242  0.56284223    -0.75600
O736        O  0.84875799  0.74628993  0.62473935    -0.75700
Ni737      Ni  0.79072705  0.74341697  0.61424547     1.25400
Ni738      Ni  0.83078160  0.75621695  0.59333121     1.25400
C739        C  0.83649711  0.73768287  0.64496005     0.86600
C740        C  0.78583726  0.76104293  0.56170159     0.86500
C741        C  0.81630095  0.70300314  0.58698541     0.86600
C742        C  0.80537081  0.79563453  0.62325472     0.86700
O743        O  0.79320587  0.89131078  0.70794696    -0.75600
O744        O  0.77615898  0.95457887  0.74595889    -0.75600
O745        O  0.74958637  0.91076837  0.72996149    -0.75700
O746        O  0.82021207  0.93393163  0.72441436    -0.75700
O747        O  0.81098181  0.95465975  0.68688908    -0.75600
O748        O  0.73944639  0.93047916  0.69207014    -0.75600
O749        O  0.76643222  0.97440786  0.70811289    -0.75600
O750        O  0.78435552  0.91187451  0.67021469    -0.75700
Ni751      Ni  0.78505532  0.92206871  0.72847338     1.25400
Ni752      Ni  0.77485636  0.94367756  0.68802296     1.25400
C753        C  0.79153477  0.89127648  0.68275145     0.86600
C754        C  0.76916448  0.97519398  0.73312809     0.86500
C755        C  0.73336003  0.91542331  0.71142482     0.86600
C756        C  0.82748015  0.94755291  0.70458482     0.86700
O757        O  0.20614746  0.80934465  0.64664808    -0.75600
O758        O  0.24446461  0.79230821  0.58360727    -0.75600
O759        O  0.22164310  0.83594798  0.60356369    -0.75700
O760        O  0.22967997  0.76614992  0.62802767    -0.75700
O761        O  0.19219224  0.75412808  0.60874199    -0.75600
O762        O  0.18435742  0.82514428  0.58327226    -0.75600
O763        O  0.20688171  0.78083875  0.56430655    -0.75600
O764        O  0.16884231  0.79848392  0.62638128    -0.75700
Ni765      Ni  0.22688302  0.80125786  0.61603300     1.25400
Ni766      Ni  0.18678618  0.78913627  0.59486132     1.25400
C767        C  0.18106083  0.80668071  0.64672291     0.86600
C768        C  0.23171825  0.78445438  0.56327137     0.86500
C769        C  0.20153380  0.84236759  0.59006995     0.86600
C770        C  0.21177111  0.74909727  0.62383382     0.86700
O771        O  0.22242441  0.65393344  0.70829482    -0.75600
O772        O  0.24005690  0.59151587  0.74710642    -0.75600
O773        O  0.26586937  0.63623723  0.73171761    -0.75700
O774        O  0.19618358  0.61070938  0.72413594    -0.75700
O775        O  0.20710110  0.59020725  0.68691452    -0.75600
O776        O  0.27793718  0.61676086  0.69426633    -0.75600
O777        O  0.25163206  0.57189376  0.70963018    -0.75600
O778        O  0.23328846  0.63355813  0.67093549    -0.75700
Ni779      Ni  0.23082546  0.62364591  0.72920724     1.25400
Ni780      Ni  0.24303093  0.60224844  0.68917476     1.25400
C781        C  0.22504505  0.65392482  0.68318060     0.86600
C782        C  0.24793525  0.57105106  0.73452482     0.86500
C783        C  0.28282914  0.63235969  0.71356984     0.86600
C784        C  0.18979019  0.59705197  0.70405125     0.86700
O785        O  0.31035154  0.73355622  0.87764531    -0.75600
O786        O  0.27115356  0.75296922  0.93953250    -0.75600
O787        O  0.28852823  0.77800903  0.89512606    -0.75700
O788        O  0.29248627  0.70804504  0.92068282    -0.75700
O789        O  0.32957913  0.71751946  0.94194987    -0.75600
O790        O  0.32612737  0.78842382  0.91508789    -0.75600
O791        O  0.30866257  0.76311487  0.95965173    -0.75600
O792        O  0.34768132  0.74266999  0.89868560    -0.75700
Ni793      Ni  0.28924030  0.74288452  0.90765253     1.25400
Ni794      Ni  0.32929040  0.75338556  0.92969649     1.25400
C795        C  0.33552758  0.73515263  0.87801582     0.86600
C796        C  0.28365587  0.76045300  0.96016241     0.86500
C797        C  0.30727381  0.79416124  0.89933315     0.86600
C798        C  0.31181400  0.70097272  0.93499898     0.86700
O799        O  0.37538330  0.72124771  0.72260470    -0.75600
O800        O  0.43661046  0.76160044  0.74228014    -0.75600
O801        O  0.41843657  0.73977048  0.69735235    -0.75700
O802        O  0.39221238  0.74383894  0.76701666    -0.75700
O803        O  0.41261181  0.70652091  0.77782420    -0.75600
O804        O  0.44002742  0.70291247  0.70722845    -0.75600
O805        O  0.45701816  0.72429369  0.75279567    -0.75600
O806        O  0.39695783  0.68428156  0.73214520    -0.75700
Ni807      Ni  0.40503583  0.74300759  0.73202769     1.25400
Ni808      Ni  0.42751442  0.70325442  0.74295311     1.25400
C809        C  0.37615154  0.69601666  0.72438983     0.86600
C810        C  0.45727359  0.74932064  0.75008211     0.86500
C811        C  0.43295458  0.72047144  0.69050657     0.86600
C812        C  0.39663844  0.72529989  0.78335468     0.86700
O813        O  0.14120758  0.82298865  0.80154397    -0.75600
O814        O  0.07895306  0.78412549  0.78265880    -0.75600
O815        O  0.12397350  0.79983148  0.75767996    -0.75700
O816        O  0.09748760  0.80667987  0.82691608    -0.75700
O817        O  0.07717247  0.84400134  0.81606517    -0.75600
O818        O  0.10446695  0.83733652  0.74581888    -0.75600
O819        O  0.05955774  0.82171643  0.77124407    -0.75600
O820        O  0.12090931  0.86034149  0.79074928    -0.75700
Ni821      Ni  0.11098546  0.80200250  0.79251890     1.25400
Ni822      Ni  0.08971594  0.84212155  0.78045943     1.25400
C823        C  0.14125269  0.84814803  0.79904545     0.86600
C824        C  0.05860930  0.79678734  0.77466502     0.86500
C825        C  0.11998569  0.81804485  0.74088656     0.86600
C826        C  0.08356248  0.82659967  0.83319127     0.86700
O827        O  0.29742061  0.88853103  0.81310584    -0.75600
O828        O  0.27682206  0.95054354  0.77468884    -0.75600
O829        O  0.32198278  0.93252272  0.79624010    -0.75700
O830        O  0.25264469  0.90516319  0.79110967    -0.75700
O831        O  0.24138466  0.92465787  0.82881652    -0.75600
O832        O  0.31155500  0.95278609  0.83373824    -0.75600
O833        O  0.26601210  0.96988667  0.81252921    -0.75600
O834        O  0.28718362  0.90877158  0.85069316    -0.75700
Ni835      Ni  0.28749761  0.91860885  0.79236711     1.25400
Ni836      Ni  0.27603603  0.93981915  0.83271398     1.25400
C837        C  0.29561158  0.88854982  0.83831015     0.86600
C838        C  0.26889255  0.97085037  0.78753656     0.86500
C839        C  0.32850073  0.94652852  0.81605911     0.86600
C840        C  0.23609574  0.90908744  0.80963652     0.86700
O841        O  0.13718122  0.71978104  0.29837887    -0.75600
O842        O  0.07507605  0.75827572  0.27860960    -0.75600
O843        O  0.09344646  0.73665349  0.32336191    -0.75700
O844        O  0.12007439  0.74217791  0.25394771    -0.75700
O845        O  0.10055982  0.70454347  0.24258234    -0.75600
O846        O  0.07332489  0.69901463  0.31331219    -0.75600
O847        O  0.05560619  0.72042748  0.26810104    -0.75600
O848        O  0.11699908  0.68221373  0.28809642    -0.75700
Ni849      Ni  0.10703296  0.74060927  0.28885277     1.25400
Ni850      Ni  0.08581781  0.70025811  0.27751331     1.25400
C851        C  0.13723848  0.69457315  0.29639494     0.86600
C852        C  0.05469663  0.74540501  0.27108131     0.86500
C853        C  0.07961822  0.71681241  0.33011623     0.86600
C854        C  0.11602302  0.72383991  0.23728552     0.86700
O855        O  0.29334788  0.65631077  0.31759924    -0.75600
O856        O  0.27530391  0.59448278  0.27748953    -0.75600
O857        O  0.24967559  0.63925705  0.29340663    -0.75700
O858        O  0.31896845  0.61298523  0.30101468    -0.75700
O859        O  0.30765509  0.59237282  0.33805026    -0.75600
O860        O  0.23693970  0.61884099  0.33012147    -0.75600
O861        O  0.26365484  0.57431662  0.31464015    -0.75600
O862        O  0.28124662  0.63565456  0.35433926    -0.75700
Ni863      Ni  0.28459947  0.62639414  0.29600876     1.25400
Ni864      Ni  0.27180615  0.60449360  0.33554790     1.25400
C865        C  0.29043692  0.65600512  0.34271361     0.86600
C866        C  0.26771699  0.57371593  0.28979490     0.86500
C867        C  0.23228898  0.63466638  0.31096779     0.86600
C868        C  0.32503089  0.59886027  0.32085259     0.86700
O869        O  0.20200583  0.73579170  0.14290092    -0.75600
O870        O  0.24115793  0.75386091  0.08049391    -0.75600
O871        O  0.22485594  0.77960691  0.12478670    -0.75700
O872        O  0.21902967  0.70973685  0.10005419    -0.75700
O873        O  0.18190849  0.71958204  0.07897029    -0.75600
O874        O  0.18737378  0.79070895  0.10494910    -0.75600
O875        O  0.20370782  0.76448542  0.06051228    -0.75600
O876        O  0.16474967  0.74557549  0.12206031    -0.75700
Ni877      Ni  0.22314221  0.74448288  0.11264449     1.25400
Ni878      Ni  0.18314784  0.75558987  0.09077859     1.25400
C879        C  0.17683405  0.73767873  0.14263459     0.86600
C880        C  0.22865150  0.76133884  0.05986085     0.86500
C881        C  0.20655922  0.79616923  0.12041021     0.86600
C882        C  0.19938089  0.70283366  0.08614661     0.86700
O883        O  0.31069389  0.81057156  0.38000667    -0.75600
O884        O  0.27203484  0.79187909  0.44242126    -0.75600
O885        O  0.29301578  0.83656888  0.42271455    -0.75700
O886        O  0.28891842  0.76616570  0.39832219    -0.75700
O887        O  0.32672502  0.75619882  0.41817643    -0.75600
O888        O  0.33033780  0.82748408  0.44375394    -0.75600
O889        O  0.30980445  0.78215353  0.46227782    -0.75600
O890        O  0.34816963  0.80177121  0.40091039    -0.75700
Ni891      Ni  0.28976361  0.80153341  0.41024461     1.25400
Ni892      Ni  0.33004662  0.79145842  0.43210290     1.25400
C893        C  0.33589904  0.80927388  0.38033196     0.86600
C894        C  0.28482394  0.78472274  0.46298485     0.86500
C895        C  0.31248796  0.84388572  0.43669740     0.86600
C896        C  0.30753807  0.75003816  0.40300864     0.86700
O897        O  0.37461650  0.82737174  0.22510671    -0.75600
O898        O  0.43681431  0.78846655  0.24383514    -0.75600
O899        O  0.39224225  0.80457677  0.26912596    -0.75700
O900        O  0.41784359  0.81065897  0.19937575    -0.75700
O901        O  0.43833775  0.84805110  0.20965223    -0.75600
O902        O  0.41198771  0.84207216  0.28057771    -0.75600
O903        O  0.45656628  0.82610463  0.25453153    -0.75600
O904        O  0.39502878  0.86477004  0.23550801    -0.75700
Ni905      Ni  0.40479579  0.80637917  0.23407986     1.25400
Ni906      Ni  0.42630642  0.84653208  0.24556778     1.25400
C907        C  0.37468096  0.85256461  0.22721553     0.86600
C908        C  0.45728912  0.80110953  0.25150765     0.86500
C909        C  0.39650110  0.82281166  0.28584738     0.86600
C910        C  0.43164653  0.83054514  0.19270282     0.86700
O911        O  0.21908474  0.89018294  0.20621414    -0.75600
O912        O  0.23757585  0.95241349  0.24526366    -0.75600
O913        O  0.19342827  0.93338834  0.22297426    -0.75700
O914        O  0.26297109  0.90778116  0.22929629    -0.75700
O915        O  0.27474090  0.92776577  0.19200132    -0.75600
O916        O  0.20378015  0.95380546  0.18555078    -0.75600
O917        O  0.24838656  0.97228724  0.20769605    -0.75600
O918        O  0.22988800  0.91070967  0.16895827    -0.75700
Ni919      Ni  0.22798752  0.92034113  0.22731823     1.25400
Ni920      Ni  0.23971878  0.94196636  0.18726842     1.25400
C921        C  0.22137781  0.89035502  0.18104232     0.86600
C922        C  0.24514367  0.97299034  0.23264698     0.86500
C923        C  0.18679631  0.94712465  0.20306596     0.86600
C924        C  0.27988996  0.91225635  0.21128581     0.86700
O925        O  0.64021947  0.22059649  0.79866736    -0.75600
O926        O  0.57790042  0.25883404  0.77956748    -0.75600
O927        O  0.59683204  0.23715121  0.82414747    -0.75700
O928        O  0.62248216  0.24291871  0.75452181    -0.75700
O929        O  0.60312145  0.20512267  0.74332780    -0.75600
O930        O  0.57657763  0.19958774  0.81399633    -0.75600
O931        O  0.55848759  0.22100487  0.76889001    -0.75600
O932        O  0.62000992  0.18296361  0.78861853    -0.75700
Ni933      Ni  0.60993952  0.24127785  0.78951052     1.25400
Ni934      Ni  0.58873075  0.20087436  0.77822415     1.25400
C935        C  0.64025712  0.19539679  0.79678136     0.86600
C936        C  0.55761735  0.24600013  0.77175193     0.86500
C937        C  0.58313788  0.21721223  0.83085267     0.86600
C938        C  0.61838713  0.22450625  0.73796529     0.86700
O939        O  0.71970286  0.39108123  0.70760032    -0.75600
O940        O  0.73922820  0.45346779  0.74586178    -0.75600
O941        O  0.69461684  0.43481369  0.72402702    -0.75700
O942        O  0.76394945  0.40842726  0.73020422    -0.75700
O943        O  0.77567520  0.42787132  0.69261526    -0.75600
O944        O  0.70499368  0.45492760  0.68644625    -0.75600
O945        O  0.75017020  0.47284601  0.70807576    -0.75600
O946        O  0.73042566  0.41120643  0.67011049    -0.75700
Ni947      Ni  0.72908980  0.42136956  0.72831445     1.25400
Ni948      Ni  0.74082287  0.44251120  0.68801533     1.25400
C949        C  0.72185624  0.39100418  0.68241819     0.86600
C950        C  0.74708701  0.47380032  0.73303193     0.86500
C951        C  0.68801025  0.44852686  0.70407491     0.86600
C952        C  0.78080769  0.41254422  0.71204573     0.86700
O953        O  0.70410193  0.23580176  0.64412123    -0.75600
O954        O  0.74297269  0.25496730  0.58214041    -0.75600
O955        O  0.72620367  0.28013010  0.62659506    -0.75700
O956        O  0.72154314  0.21025097  0.60124378    -0.75700
O957        O  0.68424034  0.21974358  0.58031910    -0.75600
O958        O  0.68866535  0.29080425  0.60661800    -0.75600
O959        O  0.70532795  0.26505212  0.56219766    -0.75600
O960        O  0.66673286  0.24533625  0.62331383    -0.75700
Ni961      Ni  0.72511204  0.24503719  0.61410942     1.25400
Ni962      Ni  0.68496122  0.25571753  0.59226273     1.25400
C963        C  0.67893644  0.23746519  0.64378480     0.86600
C964        C  0.73028768  0.26230195  0.56158456     0.86500
C965        C  0.70768724  0.29645771  0.62220784     0.86600
C966        C  0.70188999  0.20314308  0.58742497     0.86700
O967        O  0.79585941  0.15640348  0.81682291    -0.75600
O968        O  0.77689240  0.09529993  0.77637883    -0.75600
O969        O  0.75193871  0.13986131  0.79317427    -0.75700
O970        O  0.82111523  0.11322078  0.79947637    -0.75700
O971        O  0.81022993  0.09232904  0.83647573    -0.75600
O972        O  0.73966044  0.11931777  0.82998928    -0.75600
O973        O  0.76552772  0.07483186  0.81344776    -0.75600
O974        O  0.78445673  0.13545583  0.85365423    -0.75700
Ni975      Ni  0.78674526  0.12681021  0.79510144     1.25400
Ni976      Ni  0.77443456  0.10461653  0.83464926     1.25400
C977        C  0.79327181  0.15592089  0.84195497     0.86600
C978        C  0.76894175  0.07458017  0.78849064     0.86500
C979        C  0.73486135  0.13531508  0.81102806     0.86600
C980        C  0.82746337  0.09916887  0.81926993     0.86700
O981        O  0.87518170  0.32735967  0.72518997    -0.75600
O982        O  0.93702712  0.28809359  0.74377344    -0.75600
O983        O  0.89302760  0.30520916  0.76938589    -0.75700
O984        O  0.91783656  0.30963680  0.69918441    -0.75700
O985        O  0.93913282  0.34682870  0.70847941    -0.75600
O986        O  0.91326737  0.34272791  0.77985624    -0.75600
O987        O  0.95738843  0.32557794  0.75379460    -0.75600
O988        O  0.89623880  0.36471749  0.73441440    -0.75700
Ni989      Ni  0.90517137  0.30620210  0.73413086     1.25400
Ni990      Ni  0.92736332  0.34625943  0.74458823     1.25400
C991        C  0.87558757  0.35257194  0.72680602     0.86600
C992        C  0.95772255  0.30052858  0.75116053     0.86500
C993        C  0.89768219  0.32370394  0.78571268     0.86600
C994        C  0.93193884  0.32910969  0.69194401     0.86700
O995        O  0.81274807  0.31112378  0.88062050    -0.75600
O996        O  0.77371037  0.29178933  0.94262240    -0.75600
O997        O  0.79563795  0.33641517  0.92392124    -0.75700
O998        O  0.79020140  0.26676354  0.89803347    -0.75700
O999        O  0.82748185  0.25546459  0.91814573    -0.75600
O1000       O  0.83308642  0.32644983  0.94429423    -0.75600
O1001       O  0.81123969  0.28145014  0.96260704    -0.75600
O1002       O  0.85004103  0.30069599  0.90106095    -0.75700
Ni1003     Ni  0.79169461  0.30179128  0.91070313     1.25400
Ni1004     Ni  0.83174675  0.29051751  0.93235634     1.25400
C1005       C  0.83790757  0.30912127  0.88072106     0.86600
C1006       C  0.78625228  0.28425769  0.96319877     0.86500
C1007       C  0.81547798  0.34326565  0.93761798     0.86600
C1008       C  0.80835496  0.25007605  0.90261196     0.86700
O1009       O  0.29568652  0.15444043  0.70876096    -0.75600
O1010       O  0.27625355  0.09188263  0.74741402    -0.75600
O1011       O  0.32056508  0.11062768  0.72498129    -0.75700
O1012       O  0.25152693  0.13708569  0.73225734    -0.75700
O1013       O  0.23922682  0.11784195  0.69484004    -0.75600
O1014       O  0.30985292  0.09071038  0.68743490    -0.75600
O1015       O  0.26490510  0.07264687  0.70973069    -0.75600
O1016       O  0.28426206  0.13433413  0.67154403    -0.75700
Ni1017     Ni  0.28628078  0.12409722  0.72973876     1.25400
Ni1018     Ni  0.27401532  0.10307883  0.68961439     1.25400
C1019       C  0.29338576  0.15444383  0.68356460     0.86600
C1020       C  0.26827474  0.07155517  0.73463111     0.86500
C1021       C  0.32700804  0.09713484  0.70482887     0.86600
C1022       C  0.23438552  0.13316837  0.71439859     0.86700
O1023       O  0.13977166  0.21884831  0.72569021    -0.75600
O1024       O  0.07744241  0.25778986  0.74390665    -0.75600
O1025       O  0.12133649  0.24090280  0.76969959    -0.75700
O1026       O  0.09714702  0.23621059  0.69932791    -0.75700
O1027       O  0.07604063  0.19894129  0.70884057    -0.75600
O1028       O  0.10138818  0.20315936  0.78003616    -0.75600
O1029       O  0.05736738  0.22011103  0.75392027    -0.75600
O1030       O  0.11878552  0.18133303  0.73466127    -0.75700
Ni1031     Ni  0.10951750  0.23984271  0.73438349     1.25400
Ni1032     Ni  0.08754385  0.19961173  0.74481519     1.25400
C1033       C  0.13945148  0.19363664  0.72732862     0.86600
C1034       C  0.05682366  0.24514649  0.75123733     0.86500
C1035       C  0.11683516  0.22224645  0.78591218     0.86600
C1036       C  0.08319992  0.21657809  0.69221778     0.86700
O1037       O  0.31055221  0.30872661  0.64427212    -0.75600
O1038       O  0.27245911  0.28941170  0.58182385    -0.75600
O1039       O  0.28954591  0.26399484  0.62630635    -0.75700
O1040       O  0.29290847  0.33446847  0.60154213    -0.75700
O1041       O  0.33040501  0.32567455  0.58051714    -0.75600
O1042       O  0.32745150  0.25433602  0.60636334    -0.75600
O1043       O  0.31040862  0.28014039  0.56192419    -0.75600
O1044       O  0.34816453  0.30015562  0.62334258    -0.75700
Ni1045     Ni  0.28992502  0.29933923  0.61406821     1.25400
Ni1046     Ni  0.33037429  0.28961254  0.59219672     1.25400
C1047       C  0.33575479  0.30764403  0.64388690     0.86600
C1048       C  0.28542634  0.28267446  0.56115605     0.86500
C1049       C  0.30853759  0.24815437  0.62196542     0.86600
C1050       C  0.31248282  0.34198526  0.58769911     0.86700
O1051       O  0.37573804  0.32568174  0.79825120    -0.75600
O1052       O  0.43774865  0.28715695  0.77868646    -0.75600
O1053       O  0.41950513  0.30938264  0.82326139    -0.75700
O1054       O  0.39287851  0.30295519  0.75413255    -0.75700
O1055       O  0.41228297  0.34057053  0.74234699    -0.75600
O1056       O  0.43968156  0.34684433  0.81256270    -0.75600
O1057       O  0.45719179  0.32483284  0.76746304    -0.75600
O1058       O  0.39583828  0.36321366  0.78755727    -0.75700
Ni1059     Ni  0.40588991  0.30490564  0.78889928     1.25400
Ni1060     Ni  0.42706215  0.34516058  0.77697296     1.25400
C1061       C  0.37560015  0.35083431  0.79593405     0.86600
C1062       C  0.45804350  0.29987034  0.77065533     0.86500
C1063       C  0.43342542  0.32928224  0.82961534     0.86600
C1064       C  0.39682339  0.32124557  0.73739508     0.86700
O1065       O  0.21924385  0.38881315  0.81481051    -0.75600
O1066       O  0.23884451  0.45080288  0.77605583    -0.75600
O1067       O  0.26346449  0.40581193  0.79194615    -0.75700
O1068       O  0.19429412  0.43258274  0.79833106    -0.75700
O1069       O  0.20483976  0.45282422  0.83576356    -0.75600
O1070       O  0.27522082  0.42545935  0.82938461    -0.75600
O1071       O  0.24987056  0.47039906  0.81367122    -0.75600
O1072       O  0.22993543  0.40907284  0.85223063    -0.75700
Ni1073     Ni  0.22865848  0.41890859  0.79390753     1.25400
Ni1074     Ni  0.24048290  0.44024024  0.83405799     1.25400
C1075       C  0.22143828  0.38883037  0.83996372     0.86600
C1076       C  0.24673613  0.47119814  0.78871502     0.86500
C1077       C  0.28031532  0.41000713  0.81002901     0.86600
C1078       C  0.18784525  0.44652389  0.81821101     0.86700
O1079       O  0.20243849  0.23311552  0.87992757    -0.75600
O1080       O  0.24192864  0.25309331  0.94126393    -0.75600
O1081       O  0.21940751  0.20850616  0.92350643    -0.75700
O1082       O  0.22557596  0.27744515  0.89630090    -0.75700
O1083       O  0.18837006  0.28949864  0.91623733    -0.75600
O1084       O  0.18228145  0.21927508  0.94426503    -0.75600
O1085       O  0.20461418  0.26446928  0.96124805    -0.75600
O1086       O  0.16531288  0.24409047  0.90056897    -0.75700
Ni1087     Ni  0.22370906  0.24274325  0.90965178     1.25400
Ni1088     Ni  0.18386417  0.25486911  0.93141293     1.25400
C1089       C  0.17730108  0.23532269  0.88024059     0.86600
C1090       C  0.22955042  0.26122992  0.96176931     0.86500
C1091       C  0.19965366  0.20217922  0.93762957     0.86600
C1092       C  0.20751947  0.29436707  0.90046171     0.86700
O1093       O  0.31111122  0.23511741  0.14344652    -0.75600
O1094       O  0.27213211  0.25464546  0.08164686    -0.75600
O1095       O  0.29444235  0.21001468  0.09974198    -0.75700
O1096       O  0.28841976  0.27940416  0.12659332    -0.75700
O1097       O  0.32569094  0.29103583  0.10648455    -0.75600
O1098       O  0.33182940  0.22049621  0.07936222    -0.75600
O1099       O  0.30963111  0.26543311  0.06167378    -0.75600
O1100       O  0.34841294  0.24585899  0.12298868    -0.75700
Ni1101     Ni  0.29013660  0.24449318  0.11344456     1.25400
Ni1102     Ni  0.33016404  0.25622182  0.09180568     1.25400
C1103       C  0.33623086  0.23746085  0.14336547     0.86600
C1104       C  0.28467357  0.26232682  0.06107220     0.86500
C1105       C  0.31429463  0.20349063  0.08577287     0.86600
C1106       C  0.30661473  0.29614817  0.12224742     0.86700
O1107       O  0.29515534  0.39001084  0.20874433    -0.75600
O1108       O  0.27855818  0.45292676  0.24787070    -0.75600
O1109       O  0.25214741  0.40849756  0.23315238    -0.75700
O1110       O  0.32182660  0.43289577  0.22415557    -0.75700
O1111       O  0.31077583  0.45325042  0.18693909    -0.75600
O1112       O  0.23964924  0.42814539  0.19600690    -0.75600
O1113       O  0.26687819  0.47259609  0.21052606    -0.75600
O1114       O  0.28358975  0.41044495  0.17173615    -0.75700
Ni1115     Ni  0.28722296  0.42052396  0.22987331     1.25400
Ni1116     Ni  0.27467084  0.44196754  0.19005651     1.25400
C1117       C  0.29230156  0.39008400  0.18363218     0.86600
C1118       C  0.27068148  0.47346156  0.23538757     0.86500
C1119       C  0.23484984  0.41276902  0.21551844     0.86600
C1120       C  0.32819013  0.44603851  0.20373614     0.86700
O1121       O  0.22235194  0.15573567  0.31508603    -0.75600
O1122       O  0.23876213  0.09348313  0.27519360    -0.75600
O1123       O  0.19520927  0.11353001  0.29820319    -0.75700
O1124       O  0.26550609  0.13713229  0.29151926    -0.75700
O1125       O  0.27667476  0.11702395  0.32888722    -0.75600
O1126       O  0.20538581  0.09183053  0.33492955    -0.75600
O1127       O  0.24979749  0.07312426  0.31238087    -0.75600
O1128       O  0.23202116  0.13438399  0.35217085    -0.75700
Ni1129     Ni  0.23018012  0.12557404  0.29361806     1.25400
Ni1130     Ni  0.24146633  0.10321733  0.33335429     1.25400
C1131       C  0.22445817  0.15518625  0.34024835     0.86600
C1132       C  0.24624580  0.07270024  0.28746885     0.86500
C1133       C  0.18843828  0.09941071  0.31783718     0.86600
C1134       C  0.28213955  0.13256981  0.30971082     0.86700
O1135       O  0.37511483  0.21968525  0.29922599    -0.75600
O1136       O  0.43609319  0.26047631  0.28016222    -0.75600
O1137       O  0.39175409  0.24320610  0.25513389    -0.75700
O1138       O  0.41795912  0.23757565  0.32466735    -0.75700
O1139       O  0.43935667  0.20078450  0.31408475    -0.75600
O1140       O  0.41237393  0.20626468  0.24339932    -0.75600
O1141       O  0.45657496  0.22337477  0.26897147    -0.75600
O1142       O  0.39650953  0.18289084  0.28855628    -0.75700
Ni1143     Ni  0.40460507  0.24161645  0.29009306     1.25400
Ni1144     Ni  0.42707534  0.20209102  0.27824916     1.25400
C1145       C  0.37585910  0.19451205  0.29694305     0.86600
C1146       C  0.45678938  0.24834273  0.27218014     0.86500
C1147       C  0.39638286  0.22513984  0.23829423     0.86600
C1148       C  0.43221461  0.21798663  0.33120370     0.86700
O1149       O  0.14055631  0.32657082  0.22408943    -0.75600
O1150       O  0.07862928  0.28657727  0.24136213    -0.75600
O1151       O  0.09783260  0.30976288  0.19743851    -0.75700
O1152       O  0.12265473  0.30287661  0.26747395    -0.75700
O1153       O  0.10243790  0.34010006  0.27909045    -0.75600
O1154       O  0.07644859  0.34653822  0.20814119    -0.75600
O1155       O  0.05840495  0.32377358  0.25274157    -0.75600
O1156       O  0.11933368  0.36360949  0.23436683    -0.75700
Ni1157     Ni  0.11052343  0.30506399  0.23225640     1.25400
Ni1158     Ni  0.08830889  0.34476501  0.24407318     1.25400
C1159       C  0.14007723  0.35170806  0.22661702     0.86600
C1160       C  0.05799136  0.29884109  0.24926598     0.86500
C1161       C  0.08359306  0.32940995  0.19096919     0.86600
C1162       C  0.11800403  0.32091613  0.28433269     0.86700
O1163       O  0.20402755  0.31043527  0.37836115    -0.75600
O1164       O  0.24393284  0.29336124  0.44049524    -0.75600
O1165       O  0.22842625  0.26728427  0.39627550    -0.75700
O1166       O  0.22041482  0.33690412  0.42118531    -0.75700
O1167       O  0.18347298  0.32587656  0.44207470    -0.75600
O1168       O  0.19144453  0.25477219  0.41631185    -0.75600
O1169       O  0.20679569  0.28157649  0.46054716    -0.75600
O1170       O  0.16721712  0.29901079  0.39927852    -0.75700
Ni1171     Ni  0.22556119  0.30231794  0.40847464     1.25400
Ni1172     Ni  0.18597471  0.28979178  0.43041824     1.25400
C1173       C  0.17893360  0.30753505  0.37870738     0.86600
C1174       C  0.23165756  0.28524193  0.46108557     0.86500
C1175       C  0.21081816  0.24997929  0.40076600     0.86600
C1176       C  0.20044017  0.34324563  0.43497528     0.86700
O1177       O  0.70475351  0.31118000  0.14539676    -0.75600
O1178       O  0.74363799  0.29214317  0.08324170    -0.75600
O1179       O  0.72282529  0.33720220  0.10269303    -0.75700
O1180       O  0.72600848  0.26668718  0.12725286    -0.75700
O1181       O  0.68826415  0.25710787  0.10708597    -0.75600
O1182       O  0.68564683  0.32829529  0.08133241    -0.75600
O1183       O  0.70600949  0.28269512  0.06299831    -0.75600
O1184       O  0.66728301  0.30289617  0.12422508    -0.75700
Ni1185     Ni  0.72571267  0.30205303  0.11524512     1.25400
Ni1186     Ni  0.68552113  0.29233244  0.09306195     1.25400
C1187       C  0.67956433  0.30997289  0.14497112     0.86600
C1188       C  0.73105568  0.28493105  0.06256744     0.86500
C1189       C  0.70351464  0.34462341  0.08850594     0.86600
C1190       C  0.70711207  0.25084075  0.12260685     0.86700
O1191       O  0.63928800  0.32670748  0.30069594    -0.75600
O1192       O  0.57660435  0.28927367  0.28075738    -0.75600
O1193       O  0.62196990  0.30425660  0.25636431    -0.75700
O1194       O  0.59522949  0.31083457  0.32550458    -0.75700
O1195       O  0.57569897  0.34868684  0.31509632    -0.75600
O1196       O  0.60338537  0.34220190  0.24458876    -0.75600
O1197       O  0.55785903  0.32733176  0.26975341    -0.75600
O1198       O  0.61977623  0.36450108  0.29002019    -0.75700
Ni1199     Ni  0.60882218  0.30637673  0.29112646     1.25400
Ni1200     Ni  0.58838879  0.34698940  0.27934961     1.25400
C1201       C  0.63975150  0.35189417  0.29854967     0.86600
C1202       C  0.55654726  0.30237879  0.27277310     0.86500
C1203       C  0.61850465  0.32255881  0.23954900     0.86600
C1204       C  0.58173323  0.33094640  0.33206013     0.86700
O1205       O  0.71752620  0.15683406  0.20850409    -0.75600
O1206       O  0.73712847  0.09503421  0.24784648    -0.75600
O1207       O  0.76169611  0.14014048  0.23187554    -0.75700
O1208       O  0.69262504  0.11319434  0.22525628    -0.75700
O1209       O  0.70357751  0.09283094  0.18794754    -0.75600
O1210       O  0.77393978  0.12006075  0.19476267    -0.75600
O1211       O  0.74843552  0.07533263  0.21032856    -0.75600
O1212       O  0.72903608  0.13636721  0.17143949    -0.75700
Ni1213     Ni  0.72693673  0.12690658  0.22977107     1.25400
Ni1214     Ni  0.73926118  0.10534798  0.18984951     1.25400
C1215       C  0.72006204  0.15662963  0.18334525     0.86600
C1216       C  0.74522023  0.07461685  0.23526434     0.86500
C1217       C  0.77880499  0.13562931  0.21405460     0.86600
C1218       C  0.68636910  0.09933882  0.20529168     0.86700
O1219       O  0.87465237  0.21935127  0.22636338    -0.75600
O1220       O  0.93796626  0.25731653  0.24268638    -0.75600
O1221       O  0.91752863  0.23464684  0.19939604    -0.75700
O1222       O  0.89390983  0.24282463  0.26928124    -0.75700
O1223       O  0.91303723  0.20514652  0.28113884    -0.75600
O1224       O  0.93750682  0.19701931  0.20977014    -0.75600
O1225       O  0.95728746  0.21955449  0.25372905    -0.75600
O1226       O  0.89460688  0.18181214  0.23711347    -0.75700
Ni1227     Ni  0.90544802  0.23991034  0.23412924     1.25400
Ni1228     Ni  0.92643981  0.19957875  0.24595103     1.25400
C1229       C  0.87431358  0.19421905  0.22902876     0.86600
C1230       C  0.95834706  0.24445916  0.25018940     0.86500
C1231       C  0.93074432  0.21440015  0.19272455     0.86600
C1232       C  0.89806994  0.22485187  0.28626465     0.86700
O1233       O  0.81242110  0.23469719  0.38025009    -0.75600
O1234       O  0.77263356  0.25306697  0.44182545    -0.75600
O1235       O  0.78873472  0.27825600  0.39728666    -0.75700
O1236       O  0.79569718  0.20896997  0.42336284    -0.75700
O1237       O  0.83259461  0.21990194  0.44425952    -0.75600
O1238       O  0.82592083  0.29039791  0.41707998    -0.75600
O1239       O  0.80980103  0.26477477  0.46176491    -0.75600
O1240       O  0.84943646  0.24554487  0.40110086    -0.75700
Ni1241     Ni  0.79098985  0.24341722  0.41010156     1.25400
Ni1242     Ni  0.83069419  0.25568291  0.43193168     1.25400
C1243       C  0.83750565  0.23726340  0.38063583     0.86600
C1244       C  0.78491719  0.26129772  0.46228053     0.86500
C1245       C  0.80680384  0.29517124  0.40131680     0.86600
C1246       C  0.81552726  0.20263281  0.43729531     0.86700
O1247       O  0.79563367  0.38800093  0.31376621    -0.75600
O1248       O  0.77700082  0.45046524  0.27511942    -0.75600
O1249       O  0.82172799  0.43068898  0.29618584    -0.75700
O1250       O  0.75139630  0.40623452  0.29206070    -0.75700
O1251       O  0.74131809  0.42618395  0.32988511    -0.75600
O1252       O  0.81242700  0.45200331  0.33342243    -0.75600
O1253       O  0.76702553  0.47034943  0.31291034    -0.75600
O1254       O  0.78681891  0.40914017  0.35122880    -0.75700
Ni1255     Ni  0.78668859  0.41825059  0.29284912     1.25400
Ni1256     Ni  0.77646581  0.44025044  0.33313164     1.25400
C1257       C  0.79426745  0.38847668  0.33899507     0.86600
C1258       C  0.76955478  0.47100970  0.28789786     0.86500
C1259       C  0.82893739  0.44472589  0.31571116     0.86600
C1260       C  0.73529305  0.41076027  0.31081489     0.86700
O1261       O  0.81114132  0.80886897  0.14265294    -0.75600
O1262       O  0.77410191  0.79009203  0.07934000    -0.75600
O1263       O  0.78779368  0.76518735  0.12474011    -0.75700
O1264       O  0.79664306  0.83421548  0.09855331    -0.75700
O1265       O  0.83456503  0.82319425  0.07950899    -0.75600
O1266       O  0.82561354  0.75249127  0.10652405    -0.75600
O1267       O  0.81210521  0.77846000  0.06083488    -0.75600
O1268       O  0.84889769  0.79730230  0.12355348    -0.75700
Ni1269     Ni  0.79104789  0.79991266  0.11183366     1.25400
Ni1270     Ni  0.83159792  0.78728314  0.09179599     1.25400
C1271       C  0.83623448  0.80623587  0.14338507     0.86600
C1272       C  0.78724659  0.78195212  0.05932379     0.86500
C1273       C  0.80568897  0.74791832  0.12147685     0.86600
C1274       C  0.81720663  0.84054487  0.08563170     0.86700
O1275       O  0.72045897  0.89072324  0.31393855    -0.75600
O1276       O  0.73761568  0.95399578  0.27572307    -0.75600
O1277       O  0.76381462  0.90987253  0.29128525    -0.75700
O1278       O  0.69355576  0.93363960  0.29766536    -0.75700
O1279       O  0.70337300  0.95439114  0.33502708    -0.75600
O1280       O  0.77458818  0.92927553  0.32916798    -0.75600
O1281       O  0.74813580  0.97348966  0.31353410    -0.75600
O1282       O  0.72987641  0.91136273  0.35148720    -0.75700
Ni1283     Ni  0.72854876  0.92148548  0.29323981     1.25400
Ni1284     Ni  0.73943090  0.94295932  0.33358376     1.25400
C1285       C  0.72262572  0.89070636  0.33911928     0.86600
C1286       C  0.74518777  0.97441826  0.28857786     0.86500
C1287       C  0.78022016  0.91411957  0.30974911     0.86600
C1288       C  0.68660716  0.94740512  0.31750508     0.86700
O1289       O  0.93767823  0.84699608  0.31451169    -0.75600
O1290       O  0.91032423  0.84119598  0.24395439    -0.75600
O1291       O  0.89449651  0.86447323  0.28918642    -0.75700
O1292       O  0.95478286  0.82461806  0.26930889    -0.75700
O1293       O  0.93455767  0.78739523  0.28059784    -0.75600
O1294       O  0.87341076  0.82752487  0.29998804    -0.75600
O1295       O  0.88996541  0.80414736  0.25584264    -0.75600
O1296       O  0.91654377  0.81005945  0.32515220    -0.75700
Ni1297     Ni  0.92515757  0.84559358  0.27873998     1.25400
Ni1298     Ni  0.90299936  0.80590871  0.29070423     1.25400
C1299       C  0.93085676  0.82963573  0.33159858     0.86600
C1300       C  0.89453976  0.82211610  0.23890772     0.86500
C1301       C  0.87397630  0.85267983  0.29764022     0.86600
C1302       C  0.95512856  0.79966070  0.27249773     0.86700
O1303       O  0.79271453  0.65453347  0.20885518    -0.75600
O1304       O  0.77437561  0.59196205  0.24766280    -0.75600
O1305       O  0.81881738  0.61150240  0.22602022    -0.75700
O1306       O  0.74870942  0.63629369  0.23127369    -0.75700
O1307       O  0.73811275  0.61664644  0.19348830    -0.75600
O1308       O  0.80921917  0.59048853  0.18876294    -0.75600
O1309       O  0.76403458  0.57224097  0.20991708    -0.75600
O1310       O  0.78358601  0.63357864  0.17138890    -0.75700
Ni1311     Ni  0.78391736  0.62418420  0.22985486     1.25400
Ni1312     Ni  0.77325960  0.60242065  0.18961483     1.25400
C1313       C  0.79115310  0.65417574  0.18363340     0.86600
C1314       C  0.76705704  0.57141466  0.23486596     0.86500
C1315       C  0.82586718  0.59741334  0.20643616     0.86600
C1316       C  0.73235304  0.63197703  0.21276706     0.86700
O1317       O  0.70548402  0.73480076  0.37858421    -0.75600
O1318       O  0.74508162  0.75278718  0.44070679    -0.75600
O1319       O  0.72146640  0.70893733  0.42198357    -0.75700
O1320       O  0.72976576  0.77828769  0.39577114    -0.75700
O1321       O  0.69272580  0.79092057  0.41563266    -0.75600
O1322       O  0.68445048  0.72038351  0.44252637    -0.75600
O1323       O  0.70780312  0.76474923  0.46041159    -0.75600
O1324       O  0.66855341  0.74640391  0.39925149    -0.75700
Ni1325     Ni  0.72684732  0.74337759  0.40867548     1.25400
Ni1326     Ni  0.68715011  0.75618216  0.43028765     1.25400
C1327       C  0.68038735  0.73759149  0.37888116     0.86600
C1328       C  0.73262150  0.76087219  0.46120537     0.86500
C1329       C  0.70134461  0.70285583  0.43573171     0.86600
C1330       C  0.71203606  0.79556352  0.39996445     0.86700
O1331       O  0.57406078  0.69776899  0.21065170    -0.75600
O1332       O  0.60195861  0.70458489  0.28105879    -0.75600
O1333       O  0.55698524  0.72079465  0.25573246    -0.75700
O1334       O  0.61759559  0.68083932  0.23590098    -0.75700
O1335       O  0.63829743  0.71781679  0.22453423    -0.75600
O1336       O  0.57713293  0.75793568  0.24407595    -0.75600
O1337       O  0.62199450  0.74159648  0.26857679    -0.75600
O1338       O  0.59482036  0.73482130  0.19973406    -0.75700
Ni1339     Ni  0.58678935  0.69972646  0.24639793     1.25400
Ni1340     Ni  0.60864833  0.73939212  0.23392500     1.25400
C1341       C  0.58077027  0.71502311  0.19340752     0.86600
C1342       C  0.61787809  0.72368472  0.28567420     0.86500
C1343       C  0.55655520  0.74574533  0.25224548     0.86600
C1344       C  0.63795648  0.69266575  0.22703112     0.86700
C1345       C  0.63826397  0.72353337  0.35741323    -0.14500
C1346       C  0.66474266  0.73142651  0.35525997     0.07700
C1347       C  0.67568473  0.73514180  0.33025780    -0.14500
C1348       C  0.66021044  0.73217572  0.30786437    -0.14500
C1349       C  0.63364683  0.72480562  0.30992533     0.07700
C1350       C  0.62289073  0.71983420  0.33482309    -0.14500
H1351       H  0.62942600  0.72048565  0.37657014     0.11600
H1352       H  0.69593119  0.74136380  0.32805522     0.11600
H1353       H  0.66899370  0.73586060  0.28878033     0.11600
H1354       H  0.60248266  0.71412496  0.33682433     0.11600
C1355       C  0.68298380  0.63518305  0.21056270    -0.14500
C1356       C  0.70767353  0.64706543  0.21334845     0.07700
C1357       C  0.70915875  0.67413940  0.21867969    -0.14500
C1358       C  0.68643908  0.68907807  0.22193286    -0.14500
C1359       C  0.66167008  0.67714448  0.22052834     0.07700
C1360       C  0.66006635  0.65009602  0.21449686    -0.14500
H1361       H  0.68146322  0.61431538  0.20650977     0.11600
H1362       H  0.72807648  0.68370635  0.22073336     0.11600
H1363       H  0.68830839  0.70978545  0.22663023     0.11600
H1364       H  0.64113890  0.64045208  0.21319817     0.11600
C1365       C  0.80295703  0.87187228  0.30382663    -0.14500
C1366       C  0.80468245  0.89891181  0.30920487     0.07700
C1367       C  0.82935749  0.91053453  0.31278346    -0.14500
C1368       C  0.85214833  0.89534996  0.30962779    -0.14500
C1369       C  0.85034400  0.86832100  0.30362363     0.07700
C1370       C  0.82553625  0.85665555  0.30135789    -0.14500
H1371       H  0.78398688  0.86253379  0.30126126     0.11600
H1372       H  0.83098891  0.93137169  0.31695732     0.11600
H1373       H  0.87114438  0.90475803  0.31151026     0.11600
H1374       H  0.82357552  0.83596992  0.29659533     0.11600
C1375       C  0.70942165  0.86762041  0.38070041    -0.14500
C1376       C  0.71777457  0.86640602  0.35428645     0.07700
C1377       C  0.72344362  0.84184912  0.34311710    -0.14500
C1378       C  0.72161084  0.81902551  0.35827216    -0.14500
C1379       C  0.71343423  0.82019395  0.38470004     0.07700
C1380       C  0.70683521  0.84460160  0.39569210    -0.14500
H1381       H  0.70499953  0.88639633  0.38975880     0.11600
H1382       H  0.73017582  0.84038577  0.32293528     0.11600
H1383       H  0.72651304  0.80032361  0.34927195     0.11600
H1384       H  0.70043840  0.84592161  0.41597942     0.11600
C1385       C  0.81337102  0.69927389  0.12838639    -0.14500
C1386       C  0.80343105  0.72350016  0.13710876     0.07700
C1387       C  0.79086931  0.72480457  0.16178949    -0.14500
C1388       C  0.78798308  0.70241917  0.17733873    -0.14500
C1389       C  0.79701499  0.67806069  0.16830639     0.07700
C1390       C  0.80974101  0.67656581  0.14371515    -0.14500
H1391       H  0.82320904  0.69779476  0.10953579     0.11600
H1392       H  0.78329975  0.74330737  0.16919780     0.11600
H1393       H  0.77785549  0.70398095  0.19604697     0.11600
H1394       H  0.81679203  0.65783466  0.13638901     0.11600
C1395       C  0.83838229  0.81164164  0.19208520    -0.14500
C1396       C  0.85089168  0.81292663  0.16753986     0.07700
C1397       C  0.87785694  0.81920143  0.16644730    -0.14500
C1398       C  0.89215121  0.82354935  0.18959865    -0.14500
C1399       C  0.87977805  0.82094606  0.21408748     0.07700
C1400       C  0.85276574  0.81529311  0.21512460    -0.14500
H1401       H  0.81770672  0.80677992  0.19352386     0.11600
H1402       H  0.88793416  0.82042683  0.14770371     0.11600
H1403       H  0.91296995  0.82781204  0.18843071     0.11600
H1404       H  0.84283436  0.81335392  0.23390559     0.11600
C1405       C  0.76570547  0.49781958  0.24656194    -0.14500
C1406       C  0.76515172  0.49637226  0.27411150     0.07700
C1407       C  0.76260510  0.51987567  0.28864073    -0.14500
C1408       C  0.76214283  0.54432633  0.27596713    -0.14500
C1409       C  0.76376097  0.54579826  0.24846078     0.07700
C1410       C  0.76481478  0.52223471  0.23388346    -0.14500
H1411       H  0.76762513  0.48014662  0.23480714     0.11600
H1412       H  0.76212226  0.51949660  0.30993311     0.11600
H1413       H  0.76126862  0.56208268  0.28772230     0.11600
H1414       H  0.76622235  0.52266823  0.21263151     0.11600
C1415       C  0.81170694  0.34408515  0.39620815    -0.14500
C1416       C  0.80597652  0.31935763  0.38553497     0.07700
C1417       C  0.79847923  0.31739696  0.35900317    -0.14500
C1418       C  0.79596603  0.33983360  0.34349827    -0.14500
C1419       C  0.80034404  0.36472848  0.35441195     0.07700
C1420       C  0.80852052  0.36671897  0.38080992    -0.14500
H1421       H  0.81761638  0.34594274  0.41657682     0.11600
H1422       H  0.79433065  0.29838479  0.35028807     0.11600
H1423       H  0.78953144  0.33777367  0.32330055     0.11600
H1424       H  0.81208885  0.38579431  0.38960348     0.11600
C1425       C  0.85729648  0.23620234  0.30971247    -0.14500
C1426       C  0.88311483  0.22648102  0.31091207     0.07700
C1427       C  0.89359529  0.21883713  0.33520080    -0.14500
C1428       C  0.87862956  0.22199394  0.35816985    -0.14500
C1429       C  0.85283377  0.23190378  0.35678382     0.07700
C1430       C  0.84220774  0.23860589  0.33236715    -0.14500
H1431       H  0.84868567  0.24191535  0.29108994     0.11600
H1432       H  0.91342827  0.21123282  0.33646225     0.11600
H1433       H  0.88714628  0.21678877  0.37696869     0.11600
H1434       H  0.82251455  0.24656763  0.33089958     0.11600
C1435       C  0.75051573  0.02563108  0.23462093    -0.14500
C1436       C  0.74937026  0.04925380  0.24910459     0.07700
C1437       C  0.74969744  0.04793780  0.27666741    -0.14500
C1438       C  0.74985652  0.02352962  0.28943527    -0.14500
C1439       C  0.74922912  0.99990806  0.27491935     0.07700
C1440       C  0.75021862  0.00123978  0.24737582    -0.14500
H1441       H  0.75031684  0.02591796  0.21332338     0.11600
H1442       H  0.74897096  0.06573659  0.28836516     0.11600
H1443       H  0.74916820  0.02320640  0.31072299     0.11600
H1444       H  0.74993769  0.98344559  0.23565270     0.11600
C1445       C  0.82798979  0.13751290  0.21451269    -0.14500
C1446       C  0.80362920  0.15024664  0.21553033     0.07700
C1447       C  0.80266279  0.17753681  0.21973615    -0.14500
C1448       C  0.82569991  0.19196051  0.22323190    -0.14500
C1449       C  0.85013498  0.17923125  0.22321262     0.07700
C1450       C  0.85111421  0.15187988  0.21866322    -0.14500
H1451       H  0.82904232  0.11644514  0.21147346     0.11600
H1452       H  0.78394543  0.18767908  0.22052692     0.11600
H1453       H  0.82431985  0.21293112  0.22677847     0.11600
H1454       H  0.86974016  0.14158279  0.21849553     0.11600
C1455       C  0.66288263  0.39394019  0.31028413    -0.14500
C1456       C  0.66387417  0.36672255  0.30495169     0.07700
C1457       C  0.68836244  0.35418434  0.30371566    -0.14500
C1458       C  0.71141944  0.36875742  0.30629780    -0.14500
C1459       C  0.71046907  0.39600691  0.31080071     0.07700
C1460       C  0.68608140  0.40846104  0.31353270    -0.14500
H1461       H  0.64419026  0.40406274  0.31143558     0.11600
H1462       H  0.68974283  0.33332666  0.29956319     0.11600
H1463       H  0.73014849  0.35878870  0.30434417     0.11600
H1464       H  0.68500999  0.42946171  0.31698566     0.11600
C1465       C  0.70800761  0.20162946  0.12499766    -0.14500
C1466       C  0.70659880  0.22612533  0.13747313     0.07700
C1467       C  0.70736208  0.22746323  0.16503807    -0.14500
C1468       C  0.71044342  0.20470736  0.18004284    -0.14500
C1469       C  0.71336599  0.18021333  0.16768289     0.07700
C1470       C  0.71157837  0.17879451  0.14001976    -0.14500
H1471       H  0.70760989  0.20031685  0.10373695     0.11600
H1472       H  0.70625177  0.24632289  0.17493896     0.11600
H1473       H  0.71169478  0.20645818  0.20123529     0.11600
H1474       H  0.71360809  0.16012158  0.12995206     0.11600
C1475       C  0.67429013  0.30716634  0.19332684    -0.14500
C1476       C  0.66443948  0.31551703  0.16905536     0.07700
C1477       C  0.63941241  0.32726733  0.16794770    -0.14500
C1478       C  0.62441084  0.33048196  0.19092575    -0.14500
C1479       C  0.63395195  0.32109898  0.21502145     0.07700
C1480       C  0.65909463  0.30964426  0.21599194    -0.14500
H1481       H  0.69338092  0.29782673  0.19462374     0.11600
H1482       H  0.63147076  0.33382091  0.14931979     0.11600
H1483       H  0.60515775  0.33946280  0.18975730     0.11600
H1484       H  0.66707198  0.30254958  0.23442051     0.11600
C1485       C  0.00754196  0.24390129  0.25281421    -0.14500
C1486       C  0.98383444  0.25817982  0.25348999     0.07700
C1487       C  0.98491801  0.28571001  0.25513805    -0.14500
C1488       C  0.00912086  0.29873749  0.25514367    -0.14500
C1489       C  0.03281746  0.28456803  0.25306106     0.07700
C1490       C  0.03177451  0.25696381  0.25239018    -0.14500
H1491       H  0.00736769  0.22263586  0.25143659     0.11600
H1492       H  0.96703245  0.29723789  0.25576982     0.11600
H1493       H  0.00917928  0.32003777  0.25565607     0.11600
H1494       H  0.04963509  0.24548596  0.25081702     0.11600
C1495       C  0.16040293  0.31776576  0.30752723    -0.14500
C1496       C  0.13295570  0.32013688  0.30902737     0.07700
C1497       C  0.12064308  0.31998724  0.33368033    -0.14500
C1498       C  0.13565372  0.31634009  0.35651291    -0.14500
C1499       C  0.16318985  0.31339918  0.35495536     0.07700
C1500       C  0.17540805  0.31472831  0.33025131    -0.14500
H1501       H  0.17023326  0.31794771  0.28859639     0.11600
H1502       H  0.09947684  0.32166689  0.33517157     0.11600
H1503       H  0.12570059  0.31548087  0.37534085     0.11600
H1504       H  0.19649061  0.31248903  0.32837700     0.11600
C1505       C  0.50558238  0.24853080  0.26574096    -0.14500
C1506       C  0.48191414  0.26271282  0.26817292     0.07700
C1507       C  0.48305873  0.29030282  0.26931770    -0.14500
C1508       C  0.50736885  0.30327733  0.26925179    -0.14500
C1509       C  0.53104172  0.28891250  0.26849126     0.07700
C1510       C  0.52983999  0.26145004  0.26613426    -0.14500
H1511       H  0.50547744  0.22724648  0.26480627     0.11600
H1512       H  0.46523739  0.30180599  0.27115106     0.11600
H1513       H  0.50762693  0.32450308  0.27114417     0.11600
H1514       H  0.54768032  0.24986042  0.26538665     0.11600
C1515       C  0.33144994  0.13637143  0.31251533    -0.14500
C1516       C  0.30666770  0.14786162  0.30909382     0.07700
C1517       C  0.30487898  0.17489017  0.30362859    -0.14500
C1518       C  0.32740380  0.19018540  0.30089590    -0.14500
C1519       C  0.35229108  0.17866463  0.30299941     0.07700
C1520       C  0.35419980  0.15164986  0.30909992    -0.14500
H1521       H  0.33319576  0.11556171  0.31674805     0.11600
H1522       H  0.28587384  0.18417844  0.30117386     0.11600
H1523       H  0.32532108  0.21084235  0.29609023     0.11600
H1524       H  0.37324510  0.14232415  0.31088688     0.11600
C1525       C  0.22487292  0.20372958  0.34478875    -0.14500
C1526       C  0.21904992  0.17913350  0.35568327     0.07700
C1527       C  0.20943376  0.17773590  0.38166472    -0.14500
C1528       C  0.20580007  0.20076000  0.39651518    -0.14500
C1529       C  0.21261016  0.22524076  0.38576303     0.07700
C1530       C  0.22197012  0.22646997  0.35975176    -0.14500
H1531       H  0.23248384  0.20531860  0.32493318     0.11600
H1532       H  0.20478149  0.15887457  0.39042890     0.11600
H1533       H  0.19850040  0.19939901  0.41649273     0.11600
H1534       H  0.22706770  0.24518974  0.35090214     0.11600
C1535       C  0.18603503  0.40767061  0.20831796    -0.14500
C1536       C  0.21010429  0.39771530  0.21731223     0.07700
C1537       C  0.21096779  0.37222598  0.22807417    -0.14500
C1538       C  0.18830672  0.35699635  0.23001861    -0.14500
C1539       C  0.16411213  0.36713946  0.22187057     0.07700
C1540       C  0.16304349  0.39262470  0.21105283    -0.14500
H1541       H  0.18493154  0.42718381  0.19984158     0.11600
H1542       H  0.22935021  0.36390519  0.23483973     0.11600
H1543       H  0.18956137  0.33756158  0.23868994     0.11600
H1544       H  0.14446404  0.40082168  0.20471579     0.11600
C1545       C  0.30378154  0.31902880  0.16500191    -0.14500
C1546       C  0.30600917  0.32066071  0.13750878     0.07700
C1547       C  0.30563911  0.34532500  0.12531017    -0.14500
C1548       C  0.30170584  0.36804439  0.14042955    -0.14500
C1549       C  0.29864314  0.36637825  0.16796727     0.07700
C1550       C  0.30043528  0.34169332  0.18014525    -0.14500
H1551       H  0.30418886  0.30005303  0.17472492     0.11600
H1552       H  0.30726065  0.34689254  0.10412247     0.11600
H1553       H  0.30062559  0.38687631  0.13052794     0.11600
H1554       H  0.29823540  0.33977897  0.20125348     0.11600
C1555       C  0.33956863  0.23481874  0.19210415    -0.14500
C1556       C  0.35135352  0.23148918  0.16739671     0.07700
C1557       C  0.37807084  0.22432032  0.16603151    -0.14500
C1558       C  0.39284954  0.22106783  0.18908009    -0.14500
C1559       C  0.38123719  0.22576425  0.21365371     0.07700
C1560       C  0.35443696  0.23229674  0.21495610    -0.14500
H1561       H  0.31910440  0.24045963  0.19374243     0.11600
H1562       H  0.38756846  0.22156283  0.14714917     0.11600
H1563       H  0.41346147  0.21595843  0.18768946     0.11600
H1564       H  0.34501208  0.23571200  0.23378690     0.11600
C1565       C  0.22980900  0.26714879  0.01079873    -0.14500
C1566       C  0.24380237  0.26544093  0.98691476     0.07700
C1567       C  0.27137762  0.26528981  0.98772342    -0.14500
C1568       C  0.28461020  0.26579900  0.01184980    -0.14500
C1569       C  0.27058402  0.26603689  0.03576514     0.07700
C1570       C  0.24303498  0.26722381  0.03493973    -0.14500
H1571       H  0.20853277  0.26720901  0.01092363     0.11600
H1572       H  0.28274061  0.26398807  0.96973460     0.11600
H1573       H  0.30585902  0.26473943  0.01175861     0.11600
H1574       H  0.23166112  0.26744152  0.05296764     0.11600
C1575       C  0.20646719  0.36639124  0.88133894    -0.14500
C1576       C  0.21514492  0.36488776  0.85504690     0.07700
C1577       C  0.21963598  0.34018246  0.84372023    -0.14500
C1578       C  0.21670403  0.31743270  0.85869777    -0.14500
C1579       C  0.20860510  0.31885871  0.88510706     0.07700
C1580       C  0.20279794  0.34342486  0.89619343    -0.14500
H1581       H  0.20281802  0.38531738  0.89043342     0.11600
H1582       H  0.22647317  0.33850593  0.82359242     0.11600
H1583       H  0.22100605  0.29859512  0.84966657     0.11600
H1584       H  0.19648137  0.34489106  0.91649662     0.11600
C1585       C  0.32947375  0.40685051  0.81348702    -0.14500
C1586       C  0.30503871  0.39508784  0.80874716     0.07700
C1587       C  0.30397129  0.36844631  0.80144584    -0.14500
C1588       C  0.32693169  0.35383454  0.79840562    -0.14500
C1589       C  0.35148357  0.36574917  0.80199248     0.07700
C1590       C  0.35262494  0.39234979  0.80971354    -0.14500
H1591       H  0.33066194  0.42737494  0.81909902     0.11600
H1592       H  0.28524632  0.35894413  0.79789972     0.11600
H1593       H  0.32549882  0.33346546  0.79227330     0.11600
H1594       H  0.37139953  0.40193751  0.81261072     0.11600
C1595       C  0.24454189  0.27660745  0.53415651    -0.14500
C1596       C  0.27190149  0.27958612  0.53550207     0.07700
C1597       C  0.28620787  0.28226213  0.51188960    -0.14500
C1598       C  0.27332344  0.28324966  0.48759668    -0.14500
C1599       C  0.24585072  0.28118297  0.48630088     0.07700
C1600       C  0.23169071  0.27716979  0.50982881    -0.14500
H1601       H  0.23299710  0.27451180  0.55195378     0.11600
H1602       H  0.30732937  0.28482237  0.51224138     0.11600
H1603       H  0.28482155  0.28634900  0.46991576     0.11600
H1604       H  0.21048613  0.27550010  0.50959075     0.11600
C1605       C  0.37759997  0.32135539  0.66572137    -0.14500
C1606       C  0.35092365  0.31414318  0.66760839     0.07700
C1607       C  0.33940656  0.31118274  0.69245944    -0.14500
C1608       C  0.35458489  0.31401945  0.71501466    -0.14500
C1609       C  0.38136540  0.32043532  0.71314928     0.07700
C1610       C  0.39269153  0.32483693  0.68844121    -0.14500
H1611       H  0.38686048  0.32386141  0.64668588     0.11600
H1612       H  0.31896792  0.30555907  0.69444747     0.11600
H1613       H  0.34546028  0.31087945  0.73404054     0.11600
H1614       H  0.41330308  0.32986617  0.68671191     0.11600
C1615       C  0.15899300  0.22729595  0.80900080    -0.14500
C1616       C  0.13189829  0.22232342  0.81052671     0.07700
C1617       C  0.11999875  0.21926745  0.83520795    -0.14500
C1618       C  0.13490697  0.22280277  0.85813820    -0.14500
C1619       C  0.16194203  0.22870956  0.85652102     0.07700
C1620       C  0.17392610  0.23016260  0.83173489    -0.14500
H1621       H  0.16856149  0.22944657  0.79005537     0.11600
H1622       H  0.09912469  0.21538681  0.83672302     0.11600
H1623       H  0.12524663  0.22142092  0.87708759     0.11600
H1624       H  0.19463875  0.23471463  0.82986926     0.11600
C1625       C  0.18576917  0.13896232  0.70623226    -0.14500
C1626       C  0.20967149  0.14830407  0.71629599     0.07700
C1627       C  0.21030758  0.17307960  0.72865993    -0.14500
C1628       C  0.18760223  0.18814869  0.73118667    -0.14500
C1629       C  0.16357136  0.17854238  0.72199278     0.07700
C1630       C  0.16272106  0.15382257  0.70950172    -0.14500
H1631       H  0.18480904  0.12000471  0.69655574     0.11600
H1632       H  0.22852896  0.18094735  0.73634150     0.11600
H1633       H  0.18867076  0.20697704  0.74113554     0.11600
H1634       H  0.14425903  0.14606190  0.70232079     0.11600
C1635       C  0.30257217  0.17632892  0.64015711    -0.14500
C1636       C  0.30075650  0.17792431  0.66783260     0.07700
C1637       C  0.30454456  0.20241094  0.67999078    -0.14500
C1638       C  0.30832144  0.22500830  0.66476155    -0.14500
C1639       C  0.30893358  0.22351246  0.63715766     0.07700
C1640       C  0.30680240  0.19894911  0.62493523    -0.14500
H1641       H  0.29999659  0.15767577  0.63019216     0.11600
H1642       H  0.30341089  0.20431120  0.70118277     0.11600
H1643       H  0.30997559  0.24390176  0.67451610     0.11600
H1644       H  0.30706339  0.19745171  0.60368561     0.11600
C1645       C  0.74452615  0.27964904  0.98933961    -0.14500
C1646       C  0.77209160  0.28027666  0.98846916     0.07700
C1647       C  0.78608399  0.27963269  0.01233841    -0.14500
C1648       C  0.77281867  0.27999696  0.03650071    -0.14500
C1649       C  0.74524864  0.28062612  0.03736106     0.07700
C1650       C  0.73126291  0.27962232  0.01349856    -0.14500
H1651       H  0.73317560  0.28003281  0.97134826     0.11600
H1652       H  0.80735314  0.28013588  0.01239656     0.11600
H1653       H  0.78417036  0.28065652  0.05448360     0.11600
H1654       H  0.70999330  0.28008653  0.01341905     0.11600
C1655       C  0.00659453  0.29996320  0.75819638    -0.14500
C1656       C  0.98279306  0.28611079  0.75523592     0.07700
C1657       C  0.98362232  0.25853754  0.75365758    -0.14500
C1658       C  0.00769028  0.24523368  0.75379929    -0.14500
C1659       C  0.03154339  0.25919167  0.75516429     0.07700
C1660       C  0.03071318  0.28666496  0.75794880    -0.14500
H1661       H  0.00669596  0.32122931  0.75950687     0.11600
H1662       H  0.96571243  0.24725877  0.75140900     0.11600
H1663       H  0.00762491  0.22404330  0.75155682     0.11600
H1664       H  0.04872366  0.29794586  0.75918315     0.11600
C1665       C  0.89500314  0.32535416  0.83512652    -0.14500
C1666       C  0.88279080  0.32335817  0.81053862     0.07700
C1667       C  0.85561700  0.31873420  0.80930643    -0.14500
C1668       C  0.84089519  0.31529664  0.83219065    -0.14500
C1669       C  0.85315740  0.31582844  0.85683913     0.07700
C1670       C  0.88030054  0.32129066  0.85817401    -0.14500
H1671       H  0.91595174  0.32882698  0.83643890     0.11600
H1672       H  0.84581987  0.31727690  0.79044931     0.11600
H1673       H  0.82009852  0.31112160  0.83050893     0.11600
H1674       H  0.89021173  0.32196659  0.87699438     0.11600
C1675       C  0.80370884  0.17789545  0.88504993    -0.14500
C1676       C  0.79979805  0.17951236  0.85763519     0.07700
C1677       C  0.80077872  0.20420226  0.84539686    -0.14500
C1678       C  0.80435496  0.22689753  0.86031647    -0.14500
C1679       C  0.80760716  0.22538126  0.88767601     0.07700
C1680       C  0.80789252  0.20073335  0.89997791    -0.14500
H1681       H  0.80313879  0.15904503  0.89496550     0.11600
H1682       H  0.79777785  0.20610057  0.82439728     0.11600
H1683       H  0.80414465  0.24583575  0.85051065     0.11600
H1684       H  0.81021476  0.19926379  0.92110018     0.11600
C1685       C  0.73000396  0.26489653  0.51249383    -0.14500
C1686       C  0.74414955  0.26600698  0.53624388     0.07700
C1687       C  0.77160607  0.26809223  0.53526017    -0.14500
C1688       C  0.78471413  0.26802811  0.51106121    -0.14500
C1689       C  0.77066002  0.26543327  0.48736309     0.07700
C1690       C  0.74312833  0.26440999  0.48831837    -0.14500
H1691       H  0.70879867  0.26312422  0.51259268     0.11600
H1692       H  0.78300244  0.26901233  0.55320403     0.11600
H1693       H  0.80597389  0.26881245  0.51101895     0.11600
H1694       H  0.73175686  0.26242278  0.47044410     0.11600
C1695       C  0.80414890  0.37077727  0.72019365    -0.14500
C1696       C  0.80549145  0.39751911  0.71333453     0.07700
C1697       C  0.83010061  0.40924251  0.70933496    -0.14500
C1698       C  0.85310306  0.39455443  0.71336754    -0.14500
C1699       C  0.85166688  0.36783243  0.72067997     0.07700
C1700       C  0.82695580  0.35601337  0.72353343    -0.14500
H1701       H  0.78529815  0.36131101  0.72320769     0.11600
H1702       H  0.83151568  0.42985331  0.70411591     0.11600
H1703       H  0.87198372  0.40410137  0.71099239     0.11600
H1704       H  0.82523700  0.33555988  0.72928261     0.11600
C1705       C  0.71524668  0.34246527  0.67948079    -0.14500
C1706       C  0.71517328  0.36715530  0.66720865     0.07700
C1707       C  0.71037420  0.36863096  0.63993426    -0.14500
C1708       C  0.70649967  0.34570889  0.62509987    -0.14500
C1709       C  0.70798929  0.32108393  0.63730795     0.07700
C1710       C  0.71198431  0.31965118  0.66460472    -0.14500
H1711       H  0.71894132  0.34070202  0.70038264     0.11600
H1712       H  0.71010032  0.38747893  0.63000517     0.11600
H1713       H  0.70354775  0.34713719  0.60405901     0.11600
H1714       H  0.71306977  0.30071830  0.67436033     0.11600
C1715       C  0.53124605  0.28738519  0.76657302    -0.14500
C1716       C  0.53235472  0.25980816  0.76740020     0.07700
C1717       C  0.50871053  0.24544725  0.76645536    -0.14500
C1718       C  0.48446319  0.25840126  0.76630608    -0.14500
C1719       C  0.48334431  0.28599265  0.76667878     0.07700
C1720       C  0.50700691  0.30033404  0.76600347    -0.14500
H1721       H  0.54908723  0.29898368  0.76719564     0.11600
H1722       H  0.50887242  0.22415015  0.76711173     0.11600
H1723       H  0.46660590  0.24681396  0.76677032     0.11600
H1724       H  0.50683545  0.32163749  0.76636490     0.11600
C1725       C  0.66023365  0.23215996  0.71499559    -0.14500
C1726       C  0.63356858  0.22526813  0.71347852     0.07700
C1727       C  0.62216604  0.22039183  0.68892015    -0.14500
C1728       C  0.63711423  0.22377910  0.66599917    -0.14500
C1729       C  0.66371341  0.23130538  0.66759469     0.07700
C1730       C  0.67525248  0.23486721  0.69229428    -0.14500
H1731       H  0.66942032  0.23572277  0.73387828     0.11600
H1732       H  0.60162311  0.21503087  0.68745708     0.11600
H1733       H  0.62785106  0.22087345  0.64705841     0.11600
H1734       H  0.69561609  0.24081582  0.69404098     0.11600
C1735       C  0.66275740  0.15396743  0.81143564    -0.14500
C1736       C  0.66420586  0.18040046  0.80317277     0.07700
C1737       C  0.68887659  0.19196726  0.79931627    -0.14500
C1738       C  0.71164988  0.17710207  0.80239295    -0.14500
C1739       C  0.71028726  0.15053704  0.80997251     0.07700
C1740       C  0.68573168  0.13920693  0.81521937    -0.14500
H1741       H  0.64387484  0.14468001  0.81464806     0.11600
H1742       H  0.69054315  0.21222238  0.79286032     0.11600
H1743       H  0.73046236  0.18633242  0.79856363     0.11600
H1744       H  0.68429324  0.11878739  0.82116057     0.11600
C1745       C  0.24882788  0.02220859  0.23245802    -0.14500
C1746       C  0.24880231  0.99837704  0.24661833     0.07700
C1747       C  0.25009926  0.99933986  0.27416811    -0.14500
C1748       C  0.25061207  0.02355224  0.28729048    -0.14500
C1749       C  0.24939919  0.04738692  0.27319549     0.07700
C1750       C  0.24891839  0.04643184  0.24559912    -0.14500
H1751       H  0.24767415  0.02217650  0.21118912     0.11600
H1752       H  0.25010519  0.98137736  0.28562500     0.11600
H1753       H  0.25087132  0.02354702  0.30858726     0.11600
H1754       H  0.24794457  0.06438585  0.23416870     0.11600
C1755       C  0.50647001  0.80109195  0.25435913    -0.14500
C1756       C  0.48260219  0.78710773  0.25550186     0.07700
C1757       C  0.48345566  0.75963272  0.25823355    -0.14500
C1758       C  0.50759339  0.74636930  0.25876276    -0.14500
C1759       C  0.53143673  0.76023145  0.25610022     0.07700
C1760       C  0.53058132  0.78780784  0.25445055    -0.14500
H1761       H  0.50652453  0.82228454  0.25213866     0.11600
H1762       H  0.46544936  0.74831846  0.25926341     0.11600
H1763       H  0.50749009  0.72510284  0.26003426     0.11600
H1764       H  0.54851676  0.79909381  0.25237509     0.11600
C1765       C  0.35221607  0.89484187  0.21463525    -0.14500
C1766       C  0.35079654  0.86779095  0.22068884     0.07700
C1767       C  0.32612160  0.85559951  0.22176989    -0.14500
C1768       C  0.30331012  0.87029173  0.21802827    -0.14500
C1769       C  0.30464207  0.89735025  0.21253666     0.07700
C1770       C  0.32925298  0.90948537  0.21023234    -0.14500
H1771       H  0.37105535  0.90470221  0.21358832     0.11600
H1772       H  0.32438555  0.83488481  0.22646644     0.11600
H1773       H  0.28444252  0.86053882  0.21976047     0.11600
H1774       H  0.33065231  0.93034571  0.20612258     0.11600
C1775       C  0.37778782  0.82295311  0.35799739    -0.14500
C1776       C  0.35113673  0.81553509  0.35644237     0.07700
C1777       C  0.33956076  0.81232027  0.33169916    -0.14500
C1778       C  0.35456617  0.81521258  0.30896011    -0.14500
C1779       C  0.38129082  0.82195865  0.31043301     0.07700
C1780       C  0.39272151  0.82652155  0.33505282    -0.14500
H1781       H  0.38712048  0.82563881  0.37693409     0.11600
H1782       H  0.31915993  0.80651351  0.32992659     0.11600
H1783       H  0.34531475  0.81189031  0.29006883     0.11600
H1784       H  0.41329128  0.83177123  0.33654491     0.11600
C1785       C  0.21221023  0.81913858  0.16267644    -0.14500
C1786       C  0.20727680  0.82075543  0.13554916     0.07700
C1787       C  0.20512720  0.84546983  0.12360412    -0.14500
C1788       C  0.20921899  0.86831033  0.13853356    -0.14500
C1789       C  0.21484592  0.86661600  0.16563875     0.07700
C1790       C  0.21567254  0.84182884  0.17764125    -0.14500
H1791       H  0.21380052  0.80014899  0.17224625     0.11600
H1792       H  0.20143557  0.84704460  0.10269075     0.11600
H1793       H  0.20836001  0.88726257  0.12884053     0.11600
H1794       H  0.22003094  0.83991405  0.19839976     0.11600
C1795       C  0.26607305  0.52438923  0.28999708    -0.14500
C1796       C  0.26526411  0.54815778  0.27574460     0.07700
C1797       C  0.26452593  0.54697649  0.24816531    -0.14500
C1798       C  0.26514978  0.52264409  0.23516280    -0.14500
C1799       C  0.26702025  0.49891924  0.24941137     0.07700
C1800       C  0.26715169  0.50010019  0.27700008    -0.14500
H1801       H  0.26693487  0.52456070  0.31127774     0.11600
H1802       H  0.26399811  0.56487509  0.23661827     0.11600
H1803       H  0.26513038  0.52249253  0.21386440     0.11600
H1804       H  0.26860872  0.48226878  0.28856761     0.11600
C1805       C  0.29641222  0.67861596  0.38634286    -0.14500
C1806       C  0.29744082  0.67944014  0.35860827     0.07700
C1807       C  0.30438188  0.70313629  0.34623065    -0.14500
C1808       C  0.30899910  0.72573374  0.36112906    -0.14500
C1809       C  0.30719720  0.72502031  0.38865983     0.07700
C1810       C  0.30133426  0.70126934  0.40128000    -0.14500
H1811       H  0.29120489  0.66061986  0.39649037     0.11600
H1812       H  0.30540128  0.70446426  0.32499292     0.11600
H1813       H  0.31322453  0.74408327  0.35110733     0.11600
H1814       H  0.29941749  0.70053455  0.42249293     0.11600
C1815       C  0.02803633  0.78646916  0.26455668    -0.14500
C1816       C  0.02921329  0.75905328  0.26748371     0.07700
C1817       C  0.00555712  0.74481093  0.26955829    -0.14500
C1818       C  0.98133187  0.75782388  0.27012633    -0.14500
C1819       C  0.98019412  0.78534967  0.26822452     0.07700
C1820       C  0.00378682  0.79945038  0.26468356    -0.14500
H1821       H  0.04589017  0.79795170  0.26288799     0.11600
H1822       H  0.00580383  0.72364872  0.27204132     0.11600
H1823       H  0.96358088  0.74639316  0.27289796     0.11600
H1824       H  0.00365176  0.82070382  0.26318249     0.11600
C1825       C  0.11986917  0.72047481  0.18800024    -0.14500
C1826       C  0.13131819  0.72473195  0.21267841     0.07700
C1827       C  0.15806248  0.73143917  0.21414297    -0.14500
C1828       C  0.17306294  0.73449884  0.19137531    -0.14500
C1829       C  0.16147767  0.73153285  0.16658024     0.07700
C1830       C  0.13478865  0.72423587  0.16504160    -0.14500
H1831       H  0.09928285  0.71531550  0.18647837     0.11600
H1832       H  0.16733652  0.73459659  0.23305570     0.11600
H1833       H  0.19348857  0.74020127  0.19317141     0.11600
H1834       H  0.12542290  0.72173091  0.14609656     0.11600
C1835       C  0.15990378  0.65294947  0.31064039    -0.14500
C1836       C  0.16124876  0.67950097  0.30270168     0.07700
C1837       C  0.18592121  0.69113536  0.29899168    -0.14500
C1838       C  0.20876248  0.67630897  0.30200234    -0.14500
C1839       C  0.20752857  0.64969481  0.30943987     0.07700
C1840       C  0.18295157  0.63823166  0.31440765    -0.14500
H1841       H  0.14104145  0.64354983  0.31368344     0.11600
H1842       H  0.18754678  0.71144846  0.29274068     0.11600
H1843       H  0.22755150  0.68566390  0.29835523     0.11600
H1844       H  0.18156417  0.61777709  0.32021645     0.11600
C1845       C  0.26367944  0.99786602  0.74633180    -0.14500
C1846       C  0.26464642  0.99636825  0.77388797     0.07700
C1847       C  0.26413575  0.01994574  0.78847708    -0.14500
C1848       C  0.26424543  0.04442215  0.77582536    -0.14500
C1849       C  0.26440735  0.04594553  0.74826610     0.07700
C1850       C  0.26332916  0.02236811  0.73367542    -0.14500
H1851       H  0.26400196  0.98012301  0.73452820     0.11600
H1852       H  0.26494769  0.01954399  0.80975357     0.11600
H1853       H  0.26500937  0.06214298  0.78763288     0.11600
H1854       H  0.26348420  0.02279423  0.71237900     0.11600
C1855       C  0.19003561  0.85175524  0.80078991    -0.14500
C1856       C  0.16535558  0.86337900  0.80462402     0.07700
C1857       C  0.16401979  0.89016925  0.81168475    -0.14500
C1858       C  0.18702567  0.90514746  0.81439348    -0.14500
C1859       C  0.21154974  0.89369836  0.80922622     0.07700
C1860       C  0.21285492  0.86684857  0.80273312    -0.14500
H1861       H  0.19164692  0.83125328  0.79518211     0.11600
H1862       H  0.14517248  0.89957706  0.81478396     0.11600
H1863       H  0.18562333  0.92578981  0.81949618     0.11600
H1864       H  0.23165311  0.85755311  0.79896680     0.11600
C1865       C  0.28351010  0.76553347  0.00927411    -0.14500
C1866       C  0.26946854  0.76453509  0.98543773     0.07700
C1867       C  0.24189481  0.76496441  0.98640059    -0.14500
C1868       C  0.22870208  0.76535509  0.01062071    -0.14500
C1869       C  0.24276186  0.76491552  0.03446788     0.07700
C1870       C  0.27032292  0.76551246  0.03348747    -0.14500
H1871       H  0.30478112  0.76513418  0.00928971     0.11600
H1872       H  0.23049201  0.76422335  0.96845323     0.11600
H1873       H  0.20743270  0.76480261  0.01063381     0.11600
H1874       H  0.28173080  0.76521956  0.05144247     0.11600
C1875       C  0.30039905  0.81714013  0.85712038    -0.14500
C1876       C  0.30743758  0.81860849  0.88380129     0.07700
C1877       C  0.31316406  0.84317440  0.89491706    -0.14500
C1878       C  0.31010605  0.86612081  0.87986896    -0.14500
C1879       C  0.30210244  0.86460740  0.85337900     0.07700
C1880       C  0.29805098  0.83986080  0.84197987    -0.14500
H1881       H  0.29627151  0.79829050  0.84804974     0.11600
H1882       H  0.31876180  0.84468373  0.91540228     0.11600
H1883       H  0.31347907  0.88505693  0.88903546     0.11600
H1884       H  0.29180116  0.83812686  0.82169475     0.11600
C1885       C  0.37723776  0.72153177  0.85526587    -0.14500
C1886       C  0.35077730  0.72958178  0.85395049     0.07700
C1887       C  0.33949367  0.73449567  0.82933811    -0.14500
C1888       C  0.35463559  0.73264300  0.80657099    -0.14500
C1889       C  0.38120830  0.72526515  0.80784475     0.07700
C1890       C  0.39228503  0.71896830  0.83225209    -0.14500
H1891       H  0.38633890  0.71759759  0.87409611     0.11600
H1892       H  0.31925394  0.74089160  0.82776992     0.11600
H1893       H  0.34560131  0.73725281  0.78784134     0.11600
H1894       H  0.41270541  0.71315085  0.83359414     0.11600
C1895       C  0.25200939  0.52188530  0.73419974    -0.14500
C1896       C  0.25133056  0.54563384  0.74847569     0.07700
C1897       C  0.25149186  0.54454155  0.77606370    -0.14500
C1898       C  0.25142839  0.52027313  0.78906973    -0.14500
C1899       C  0.25076479  0.49653402  0.77478713     0.07700
C1900       C  0.25151684  0.49761209  0.74720596    -0.14500
H1901       H  0.25174555  0.52201750  0.71290214     0.11600
H1902       H  0.25095719  0.56244298  0.78761504     0.11600
H1903       H  0.25071458  0.52015616  0.81035967     0.11600
H1904       H  0.25100791  0.47971024  0.73565368     0.11600
C1905       C  0.33188553  0.63791190  0.70810851    -0.14500
C1906       C  0.30712427  0.64827629  0.71439400     0.07700
C1907       C  0.30517736  0.67482920  0.72197549    -0.14500
C1908       C  0.32751080  0.69064690  0.72382785    -0.14500
C1909       C  0.35244271  0.68010483  0.71879630     0.07700
C1910       C  0.35446467  0.65361744  0.71073484    -0.14500
H1911       H  0.33383417  0.61756057  0.70209528     0.11600
H1912       H  0.28621570  0.68339366  0.72655795     0.11600
H1913       H  0.32535908  0.71085571  0.73026576     0.11600
H1914       H  0.37352706  0.64501444  0.70674547     0.11600
C1915       C  0.23082806  0.78020555  0.51422175    -0.14500
C1916       C  0.24535610  0.78087380  0.53776695     0.07700
C1917       C  0.27286829  0.78034000  0.53638598    -0.14500
C1918       C  0.28559239  0.78014470  0.51198943    -0.14500
C1919       C  0.27108727  0.78089792  0.48842863     0.07700
C1920       C  0.24355841  0.78042469  0.48980905    -0.14500
H1921       H  0.20955863  0.78069456  0.51461364     0.11600
H1922       H  0.28457683  0.78078280  0.55414594     0.11600
H1923       H  0.30686095  0.78058128  0.51163887     0.11600
H1924       H  0.23185182  0.78098283  0.47205268     0.11600
C1925       C  0.20738726  0.69994484  0.62729161    -0.14500
C1926       C  0.21336946  0.72433988  0.63863456     0.07700
C1927       C  0.22169223  0.72542830  0.66494797    -0.14500
C1928       C  0.22442783  0.70252685  0.67966585    -0.14500
C1929       C  0.21949955  0.67800841  0.66816404     0.07700
C1930       C  0.21087104  0.67680577  0.64188576    -0.14500
H1931       H  0.20090266  0.69876031  0.60704968     0.11600
H1932       H  0.22613041  0.74413304  0.67416722     0.11600
H1933       H  0.23128943  0.70393728  0.69978101     0.11600
H1934       H  0.20694506  0.65800131  0.63266855     0.11600
C1935       C  0.13899930  0.81885072  0.66910607    -0.14500
C1936       C  0.16582605  0.81223878  0.67070098     0.07700
C1937       C  0.17746189  0.80906119  0.69542931    -0.14500
C1938       C  0.16227677  0.81124294  0.71814457    -0.14500
C1939       C  0.13539129  0.81726712  0.71654071     0.07700
C1940       C  0.12392243  0.82173813  0.69196675    -0.14500
H1941       H  0.12964655  0.82147775  0.65016989     0.11600
H1942       H  0.19802222  0.80385107  0.69716500     0.11600
H1943       H  0.17150721  0.80805634  0.73707649     0.11600
H1944       H  0.10323813  0.82647830  0.69044559     0.11600
C1945       C  0.76312023  0.00148157  0.77455238    -0.14500
C1946       C  0.76550810  0.00062643  0.74705528     0.07700
C1947       C  0.76653934  0.02451866  0.73305397    -0.14500
C1948       C  0.76657651  0.04866803  0.74635809    -0.14500
C1949       C  0.76519374  0.04948744  0.77394831     0.07700
C1950       C  0.76275033  0.02561770  0.78782110    -0.14500
H1951       H  0.76220357  0.98346324  0.78588814     0.11600
H1952       H  0.76849503  0.02455552  0.71183751     0.11600
H1953       H  0.76848349  0.06664736  0.73508109     0.11600
H1954       H  0.76170915  0.02548508  0.80909626     0.11600
C1955       C  0.74462709  0.76399820  0.53474954    -0.14500
C1956       C  0.77215331  0.76454110  0.53613814     0.07700
C1957       C  0.78664249  0.76604729  0.51251653    -0.14500
C1958       C  0.77392323  0.76569356  0.48807485    -0.14500
C1959       C  0.74641138  0.76432538  0.48671877     0.07700
C1960       C  0.73191889  0.76411796  0.51036372    -0.14500
H1961       H  0.73289243  0.76280379  0.55250661     0.11600
H1962       H  0.80791169  0.76636603  0.51286023     0.11600
H1963       H  0.78563044  0.76589336  0.47026134     0.11600
H1964       H  0.71068097  0.76290270  0.51005879     0.11600
C1965       C  0.81181960  0.84461060  0.62801393    -0.14500
C1966       C  0.80331306  0.82043659  0.63826086     0.07700
C1967       C  0.79233540  0.81968434  0.66367721    -0.14500
C1968       C  0.78952452  0.84262215  0.67846429    -0.14500
C1969       C  0.79701381  0.86693829  0.66791048     0.07700
C1970       C  0.80825721  0.86780889  0.64258959    -0.14500
H1971       H  0.82044459  0.84563901  0.60855030     0.11600
H1972       H  0.78594039  0.80121499  0.67219907     0.11600
H1973       H  0.78066184  0.84146213  0.69782956     0.11600
H1974       H  0.81422777  0.88642501  0.63410834     0.11600
C1975       C  0.77500959  0.78154143  0.98578143    -0.14500
C1976       C  0.74761355  0.77826422  0.98457109     0.07700
C1977       C  0.73379818  0.77333727  0.00811167    -0.14500
C1978       C  0.74677569  0.77346743  0.03239122    -0.14500
C1979       C  0.77393790  0.77801933  0.03366548     0.07700
C1980       C  0.78804277  0.78121742  0.01003302    -0.14500
H1981       H  0.78627141  0.78537216  0.96809141     0.11600
H1982       H  0.71269564  0.77066265  0.00795111     0.11600
H1983       H  0.73543557  0.77076232  0.05023813     0.11600
H1984       H  0.80900402  0.78487490  0.01037215     0.11600
C1985       C  0.53031012  0.76281827  0.75715862    -0.14500
C1986       C  0.53127713  0.79040020  0.75626518     0.07700
C1987       C  0.50743427  0.80449696  0.75578967    -0.14500
C1988       C  0.48326775  0.79129393  0.75475981    -0.14500
C1989       C  0.48235237  0.76367821  0.75461766     0.07700
C1990       C  0.50615292  0.74963373  0.75656887    -0.14500
H1991       H  0.54826064  0.75138193  0.75750429     0.11600
H1992       H  0.50745571  0.82578607  0.75490519     0.11600
H1993       H  0.46536321  0.80270427  0.75329429     0.11600
H1994       H  0.50623273  0.72832815  0.75644864     0.11600
C1995       C  0.66094308  0.81998509  0.80809184    -0.14500
C1996       C  0.63409974  0.82618591  0.81007229     0.07700
C1997       C  0.62286042  0.82971359  0.83501587    -0.14500
C1998       C  0.63800868  0.82543068  0.85768288    -0.14500
C1999       C  0.66471786  0.81834735  0.85561041     0.07700
C2000       C  0.67616508  0.81641880  0.83058809    -0.14500
H2001       H  0.67007365  0.81741885  0.78898069     0.11600
H2002       H  0.60221954  0.83451605  0.83694874     0.11600
H2003       H  0.62876588  0.82720112  0.87680747     0.11600
H2004       H  0.69662294  0.81095641  0.82836847     0.11600
C2005       C  0.68660082  0.85891594  0.71850479    -0.14500
C2006       C  0.66212873  0.87152960  0.71933562     0.07700
C2007       C  0.66095791  0.89897058  0.71529252    -0.14500
C2008       C  0.68402882  0.91356984  0.71129437    -0.14500
C2009       C  0.70844967  0.90090115  0.71189126     0.07700
C2010       C  0.70951589  0.87350395  0.71510639    -0.14500
H2011       H  0.68816536  0.83789174  0.72160190     0.11600
H2012       H  0.64228481  0.90917488  0.71573726     0.11600
H2013       H  0.68290480  0.93471991  0.70893261     0.11600
H2014       H  0.72827451  0.86341536  0.71549485     0.11600
C2015       C  0.00695106  0.74289648  0.77213674    -0.14500
C2016       C  0.98350682  0.75760830  0.77115583     0.07700
C2017       C  0.98518004  0.78506224  0.76882164    -0.14500
C2018       C  0.00969559  0.79758801  0.76844318    -0.14500
C2019       C  0.03311892  0.78299610  0.77087859     0.07700
C2020       C  0.03145859  0.75544947  0.77221251    -0.14500
H2021       H  0.00636154  0.72168053  0.77405140     0.11600
H2022       H  0.96752522  0.79691835  0.76793185     0.11600
H2023       H  0.01020959  0.81886211  0.76741946     0.11600
H2024       H  0.04905496  0.74362681  0.77410718     0.11600
C2025       C  0.89300635  0.72110884  0.69062997    -0.14500
C2026       C  0.88149240  0.72593572  0.71520158     0.07700
C2027       C  0.85480235  0.73292397  0.71657243    -0.14500
C2028       C  0.83989230  0.73555674  0.69374980    -0.14500
C2029       C  0.85157189  0.73191088  0.66904418     0.07700
C2030       C  0.87821975  0.72450080  0.66763318    -0.14500
H2031       H  0.91353054  0.71566908  0.68920921     0.11600
H2032       H  0.84547430  0.73646428  0.73543311     0.11600
H2033       H  0.81949350  0.74142562  0.69538833     0.11600
H2034       H  0.88763352  0.72154166  0.64873773     0.11600
C2035       C  0.74999544  0.52501364  0.78705692    -0.14500
C2036       C  0.74920188  0.54859416  0.77252958     0.07700
C2037       C  0.75091916  0.54729138  0.74500453    -0.14500
C2038       C  0.75200462  0.52289095  0.73225293    -0.14500
C2039       C  0.75093761  0.49927699  0.74674377     0.07700
C2040       C  0.75065064  0.50063354  0.77430686    -0.14500
H2041       H  0.74878312  0.52531111  0.80832307     0.11600
H2042       H  0.75057661  0.56508590  0.73328922     0.11600
H2043       H  0.75227540  0.52255478  0.71095518     0.11600
H2044       H  0.74995396  0.48285015  0.78602238     0.11600
C2045       C  0.80192824  0.67679820  0.80110635    -0.14500
C2046       C  0.80301592  0.64980543  0.80699475     0.07700
C2047       C  0.82737028  0.63795087  0.81174214    -0.14500
C2048       C  0.85048233  0.65273595  0.80929263    -0.14500
C2049       C  0.84940131  0.67968993  0.80286513     0.07700
C2050       C  0.82487926  0.69169263  0.79938765    -0.14500
H2051       H  0.78320820  0.68635710  0.79769693     0.11600
H2052       H  0.82854614  0.61718630  0.81638103     0.11600
H2053       H  0.86921989  0.64305244  0.81210248     0.11600
H2054       H  0.82349551  0.71233630  0.79426876     0.11600
C2055       C  0.72173864  0.70570176  0.84073581    -0.14500
C2056       C  0.71487358  0.68129116  0.85147852     0.07700
C2057       C  0.70529481  0.68003569  0.87743788    -0.14500
C2058       C  0.70294813  0.70294574  0.89256009    -0.14500
C2059       C  0.71101512  0.72715721  0.88212888     0.07700
C2060       C  0.72012895  0.72838239  0.85603739    -0.14500
H2061       H  0.72939960  0.70709048  0.82088324     0.11600
H2062       H  0.69991126  0.66130730  0.88607207     0.11600
H2063       H  0.69573469  0.70164794  0.91257449     0.11600
H2064       H  0.72609590  0.74697596  0.84746966     0.11600
C2065       C  0.89040524  0.97836010  0.68023918    -0.14500
C2066       C  0.90940819  0.96285978  0.69302497     0.07700
C2067       C  0.90122055  0.94354877  0.71093555    -0.14500
C2068       C  0.87449895  0.93932360  0.71542012    -0.14500
C2069       C  0.85551742  0.95407515  0.70177425     0.07700
C2070       C  0.86369788  0.97386530  0.68442692    -0.14500
H2071       H  0.89612457  0.99339420  0.66627048     0.11600
H2072       H  0.91542402  0.93136642  0.72107967     0.11600
H2073       H  0.86870776  0.92384340  0.72886575     0.11600
H2074       H  0.84946578  0.98557246  0.67377446     0.11600
C2075       C  0.20682048  0.91630486  0.59341870    -0.14500
C2076       C  0.18925530  0.92410087  0.57374844     0.07700
C2077       C  0.17659063  0.90474048  0.55850550    -0.14500
C2078       C  0.18076459  0.87806495  0.56345580    -0.14500
C2079       C  0.19800209  0.87031324  0.58342205     0.07700
C2080       C  0.21129552  0.88965721  0.59808749    -0.14500
H2081       H  0.21677246  0.93076658  0.60548036     0.11600
H2082       H  0.16278993  0.91016892  0.54327034     0.11600
H2083       H  0.17034121  0.86354491  0.55186764     0.11600
H2084       H  0.22459646  0.88421074  0.61375961     0.11600
C2085       C  0.10302692  0.97686153  0.63479257    -0.14500
C2086       C  0.10167476  0.98000603  0.60725323     0.07700
C2087       C  0.07711289  0.97881340  0.59489155    -0.14500
C2088       C  0.05428913  0.97593482  0.60983788    -0.14500
C2089       C  0.05559996  0.97360246  0.63732554     0.07700
C2090       C  0.08011009  0.97339002  0.64972853    -0.14500
H2091       H  0.12175884  0.97758022  0.64483115     0.11600
H2092       H  0.07542765  0.98118883  0.57379074     0.11600
H2093       H  0.03543777  0.97596125  0.59995515     0.11600
H2094       H  0.08142836  0.97166993  0.67091965     0.11600
C2095       C  0.08615379  0.22310609  0.61822100    -0.14500
C2096       C  0.06773311  0.20416873  0.61039586     0.07700
C2097       C  0.05301678  0.19082610  0.62969644    -0.14500
C2098       C  0.05744176  0.19544542  0.65632521    -0.14500
C2099       C  0.07641113  0.21375972  0.66420686     0.07700
C2100       C  0.09031099  0.22802277  0.64493098    -0.14500
H2101       H  0.09767445  0.23371837  0.60375558     0.11600
H2102       H  0.03869256  0.17604760  0.62427484     0.11600
H2103       H  0.04640690  0.18426014  0.67073605     0.11600
H2104       H  0.10513586  0.24225158  0.65047534     0.11600
C2105       C  0.12723012  0.11678722  0.56399375    -0.14500
C2106       C  0.10131169  0.11535283  0.55442166     0.07700
C2107       C  0.09042153  0.09073421  0.54869431    -0.14500
C2108       C  0.10548163  0.06802930  0.55132999    -0.14500
C2109       C  0.13153819  0.06936873  0.56035501     0.07700
C2110       C  0.14214894  0.09382387  0.56738274    -0.14500
H2111       H  0.13596743  0.13566253  0.56859925     0.11600
H2112       H  0.07059379  0.08913376  0.54114745     0.11600
H2113       H  0.09675060  0.04928676  0.54614361     0.11600
H2114       H  0.16213820  0.09523829  0.57450242     0.11600
C2115       C  0.92942156  0.82259365  0.40552754    -0.14500
C2116       C  0.94822684  0.84114372  0.41327142     0.07700
C2117       C  0.96281981  0.85451320  0.39384994    -0.14500
C2118       C  0.95776263  0.85036086  0.36718743    -0.14500
C2119       C  0.93832988  0.83245209  0.35947101     0.07700
C2120       C  0.92465938  0.81814189  0.37888241    -0.14500
H2121       H  0.91798524  0.81195344  0.42003834     0.11600
H2122       H  0.97747100  0.86898017  0.39923416     0.11600
H2123       H  0.96866429  0.86153116  0.35266253     0.11600
H2124       H  0.90951499  0.80418186  0.37352900     0.11600
C2125       C  0.96869269  0.92506155  0.55793726    -0.14500
C2126       C  0.96095377  0.89853508  0.55912281     0.07700
C2127       C  0.95553817  0.88715996  0.58366349    -0.14500
C2128       C  0.95908392  0.90189503  0.60676588    -0.14500
C2129       C  0.96725510  0.92837042  0.60548928     0.07700
C2130       C  0.97150585  0.93990407  0.58081944    -0.14500
H2131       H  0.97271458  0.93433207  0.53915633     0.11600
H2132       H  0.94952804  0.86676288  0.58499310     0.11600
H2133       H  0.95560919  0.89259094  0.62561928     0.11600
H2134       H  0.97793496  0.96016572  0.57924627     0.11600
C2135       C  0.84312095  0.14005365  0.46603482     0.14300
C2136       C  0.82851629  0.12084210  0.45246915     0.07700
C2137       C  0.80868941  0.12875194  0.43517317    -0.14500
C2138       C  0.80385148  0.15543576  0.43113337    -0.14500
C2139       C  0.81903892  0.17468144  0.44402134     0.07700
C2140       C  0.83854767  0.16675115  0.46170237    -0.14500
H2141       H  0.85868067  0.13447171  0.47940562     0.11600
H2142       H  0.79714968  0.11434524  0.42454480     0.11600
H2143       H  0.78873357  0.16095356  0.41724496     0.11600
H2144       H  0.85056133  0.18113386  0.47182278     0.11600
C2145       C  0.92488729  0.95340034  0.47746620    -0.14500
C2146       C  0.91447154  0.92898810  0.47031495     0.07700
C2147       C  0.88891583  0.92765686  0.45981039    -0.14500
C2148       C  0.87388745  0.95060433  0.45680095    -0.14500
C2149       C  0.88401728  0.97484458  0.46517908     0.07700
C2150       C  0.90972176  0.97602690  0.47519962    -0.14500
H2151       H  0.94441279  0.95485692  0.48579817     0.11600
H2152       H  0.88057374  0.90888742  0.45415302     0.11600
H2153       H  0.85420234  0.94931745  0.44885861     0.11600
H2154       H  0.91814019  0.99460028  0.48139928     0.11600
C2155       C  0.11456774  0.10454235  0.31414722    -0.14500
C2156       C  0.10665509  0.08350252  0.33013623     0.07700
C2157       C  0.12590345  0.06673448  0.34084860    -0.14500
C2158       C  0.15255574  0.07154258  0.33653039    -0.14500
C2159       C  0.16043496  0.09292377  0.32106475     0.07700
C2160       C  0.14121699  0.10910050  0.30950605    -0.14500
H2161       H  0.10022472  0.11779633  0.30567309     0.11600
H2162       H  0.12044085  0.05032860  0.35328481     0.11600
H2163       H  0.16698963  0.05873349  0.34551944     0.11600
H2164       H  0.14680460  0.12585499  0.29758510     0.11600
C2165       C  0.91382000  0.07024219  0.39167721    -0.14500
C2166       C  0.91532384  0.06282735  0.41835418     0.07700
C2167       C  0.94005136  0.05923015  0.42984106    -0.14500
C2168       C  0.96279007  0.06187652  0.41474535    -0.14500
C2169       C  0.96134834  0.06880776  0.38802647     0.07700
C2170       C  0.93675233  0.07362456  0.37668396    -0.14500
H2171       H  0.89491504  0.07321884  0.38240318     0.11600
H2172       H  0.94178662  0.05341672  0.45026174     0.11600
H2173       H  0.98165224  0.05838702  0.42396473     0.11600
H2174       H  0.93526190  0.07905732  0.35614333     0.11600
C2175       C  0.06146233  0.15667125  0.44077024    -0.14500
C2176       C  0.05489863  0.14557401  0.46515292     0.07700
C2177       C  0.04623946  0.11932609  0.46621529    -0.14500
C2178       C  0.04372937  0.10447738  0.44332612    -0.14500
C2179       C  0.04920444  0.11577556  0.41881336     0.07700
C2180       C  0.05818844  0.14196809  0.41764593    -0.14500
H2181       H  0.06820530  0.17684603  0.43955895     0.11600
H2182       H  0.04132917  0.11026606  0.48488562     0.11600
H2183       H  0.03657329  0.08444474  0.44471830     0.11600
H2184       H  0.06252842  0.15105377  0.39886237     0.11600
C2185       C  0.90127391  0.10001552  0.81127746    -0.14500
C2186       C  0.90924777  0.08356597  0.83184492     0.07700
C2187       C  0.89008128  0.07083692  0.84727274    -0.14500
C2188       C  0.86339139  0.07522535  0.84280371    -0.14500
C2189       C  0.85538876  0.09214048  0.82258806     0.07700
C2190       C  0.87459320  0.10408364  0.80653856    -0.14500
H2191       H  0.91564229  0.10998390  0.79908519     0.11600
H2192       H  0.89571807  0.05816593  0.86342402     0.11600
H2193       H  0.84908068  0.06582781  0.85550263     0.11600
H2194       H  0.86906145  0.11731876  0.79081317     0.11600
C2195       C  0.99911973  0.05086217  0.76288603    -0.14500
C2196       C  0.99915669  0.03689356  0.78682326     0.07700
C2197       C  0.00006972  0.00927998  0.78596531    -0.14500
C2198       C  0.00016786  0.99596560  0.76180020    -0.14500
C2199       C  0.99894304  0.00991504  0.73787721     0.07700
C2200       C  0.99881884  0.03754636  0.73873580    -0.14500
H2201       H  0.99822594  0.07215037  0.76278448     0.11600
H2202       H  0.00007340  0.99792189  0.80398794     0.11600
H2203       H  0.00015168  0.97466034  0.76191622     0.11600
H2204       H  0.99783842  0.04890613  0.72074330     0.11600
C2205       C  0.17533030  0.14008354  0.97013929    -0.14500
C2206       C  0.18744897  0.12073878  0.95439657     0.07700
C2207       C  0.20498055  0.12844509  0.93460737    -0.14500
C2208       C  0.20964033  0.15502312  0.93000617    -0.14500
C2209       C  0.19659860  0.17438536  0.94489102     0.07700
C2210       C  0.17970536  0.16673806  0.96526415    -0.14500
H2211       H  0.16169363  0.13468056  0.98559874     0.11600
H2212       H  0.21460976  0.11398164  0.92225461     0.11600
H2213       H  0.22271264  0.16039863  0.91405620     0.11600
H2214       H  0.16954955  0.18131068  0.97705820     0.11600
C2215       C  0.10211875  0.06570882  0.89087981    -0.14500
C2216       C  0.10050686  0.06495236  0.91859926     0.07700
C2217       C  0.07612864  0.06956946  0.93067738    -0.14500
C2218       C  0.05368397  0.07348910  0.91541047    -0.14500
C2219       C  0.05520904  0.07337949  0.88782203     0.07700
C2220       C  0.07963218  0.07005658  0.87559375    -0.14500
H2221       H  0.12067129  0.06236816  0.88096482     0.11600
H2222       H  0.07419905  0.06920357  0.95189318     0.11600
H2223       H  0.03488289  0.07598601  0.92515060     0.11600
H2224       H  0.08110547  0.06966054  0.85434130     0.11600
C2225       C  0.08484783  0.82064727  0.90695779    -0.14500
C2226       C  0.06657281  0.83984940  0.91438178     0.07700
C2227       C  0.05224082  0.85322327  0.89486712    -0.14500
C2228       C  0.05710272  0.84840944  0.86831848    -0.14500
C2229       C  0.07606940  0.82987101  0.86090513     0.07700
C2230       C  0.08942188  0.81555516  0.88043188    -0.14500
H2231       H  0.09603124  0.80999764  0.92161278     0.11600
H2232       H  0.03800123  0.86817866  0.90006714     0.11600
H2233       H  0.04647978  0.85959554  0.85364023     0.11600
H2234       H  0.10420904  0.80113908  0.87524831     0.11600
C2235       C  0.09000956  0.95294427  0.97706334    -0.14500
C2236       C  0.10126548  0.92855561  0.97110099     0.07700
C2237       C  0.12744780  0.92746768  0.96212870    -0.14500
C2238       C  0.14216964  0.95064423  0.95932797    -0.14500
C2239       C  0.13103761  0.97488225  0.96637428     0.07700
C2240       C  0.10482978  0.97580890  0.97501742    -0.14500
H2241       H  0.07000257  0.95425120  0.98426768     0.11600
H2242       H  0.13648675  0.90874094  0.95746338     0.11600
H2243       H  0.16232778  0.94958024  0.95254190     0.11600
H2244       H  0.09573634  0.99437156  0.98024582     0.11600
C2245       C  0.13978535  0.94175399  0.21596724    -0.14500
C2246       C  0.15886286  0.95409751  0.20006808     0.07700
C2247       C  0.15076340  0.97158483  0.18041345    -0.14500
C2248       C  0.12407593  0.97609160  0.17625684    -0.14500
C2249       C  0.10500931  0.96290210  0.19143207     0.07700
C2250       C  0.11307867  0.94595081  0.21153275    -0.14500
H2251       H  0.14543889  0.92811476  0.23129776     0.11600
H2252       H  0.16499868  0.98136949  0.16792101     0.11600
H2253       H  0.11837241  0.98922932  0.16050585     0.11600
H2254       H  0.09877886  0.93567268  0.22354721     0.11600
C2255       C  0.01446162  0.99524435  0.26075093    -0.14500
C2256       C  0.01578979  0.00959978  0.23707264     0.07700
C2257       C  0.01659314  0.03717279  0.23829857    -0.14500
C2258       C  0.01690478  0.05006232  0.26261150    -0.14500
C2259       C  0.01683181  0.03567657  0.28628200     0.07700
C2260       C  0.01520358  0.00813231  0.28508924    -0.14500
H2261       H  0.01397157  0.97394269  0.26052252     0.11600
H2262       H  0.01769112  0.04878816  0.22047215     0.11600
H2263       H  0.01831955  0.07132114  0.26283043     0.11600
H2264       H  0.01510084  0.99651699  0.30294923     0.11600
C2265       C  0.05540766  0.90222464  0.10661804    -0.14500
C2266       C  0.04811937  0.92892660  0.10492384     0.07700
C2267       C  0.04524477  0.94056336  0.08014458    -0.14500
C2268       C  0.04839435  0.92554454  0.05746990    -0.14500
C2269       C  0.05502172  0.89876700  0.05910015     0.07700
C2270       C  0.05922116  0.88728054  0.08375857    -0.14500
H2271       H  0.05785234  0.89287714  0.12559880     0.11600
H2272       H  0.03955952  0.96101937  0.07829704     0.11600
H2273       H  0.04534127  0.93480707  0.03851659     0.11600
H2274       H  0.06435630  0.86666139  0.08533274     0.11600
C2275       C  0.84336075  0.90389996  0.05617856    -0.14500
C2276       C  0.82900105  0.92282276  0.07053151     0.07700
C2277       C  0.81025163  0.91438253  0.08883026    -0.14500
C2278       C  0.80611317  0.88761816  0.09298768    -0.14500
C2279       C  0.82088717  0.86863534  0.07921193     0.07700
C2280       C  0.83949773  0.87700049  0.06065564    -0.14500
H2281       H  0.85813906  0.90988013  0.04203883     0.11600
H2282       H  0.79896893  0.92846626  0.10017957     0.11600
H2283       H  0.79174721  0.88182595  0.10761735     0.11600
H2284       H  0.85116193  0.86282125  0.04982092     0.11600
C2285       C  0.93849334  0.98745138  0.09431340    -0.14500
C2286       C  0.91391181  0.98129151  0.10496748     0.07700
C2287       C  0.91231795  0.97125234  0.13076285    -0.14500
C2288       C  0.93511158  0.96788515  0.14584382    -0.14500
C2289       C  0.95952581  0.97535162  0.13548969     0.07700
C2290       C  0.96101988  0.98477509  0.10951759    -0.14500
H2291       H  0.94019499  0.99533188  0.07458229     0.11600
H2292       H  0.89343929  0.96627796  0.13929171     0.11600
H2293       H  0.93358756  0.96044311  0.16574714     0.11600
H2294       H  0.97975561  0.99027409  0.10096817     0.11600
C2295       C  0.92836101  0.22256707  0.11908201    -0.14500
C2296       C  0.94606252  0.20324696  0.11070709     0.07700
C2297       C  0.95972707  0.18826348  0.12955095    -0.14500
C2298       C  0.95513920  0.19201698  0.15634187    -0.14500
C2299       C  0.93712854  0.21109203  0.16469807     0.07700
C2300       C  0.92406983  0.22658760  0.14584017    -0.14500
H2301       H  0.91757845  0.23431090  0.10497155     0.11600
H2302       H  0.97335508  0.17302033  0.12358995     0.11600
H2303       H  0.96542409  0.17982858  0.17045028     0.11600
H2304       H  0.90992973  0.24138941  0.15171020     0.11600
C2305       C  0.95795880  0.14521388  0.91691686    -0.14500
C2306       C  0.96486894  0.11838670  0.91845807     0.07700
C2307       C  0.96639246  0.10633294  0.94317756    -0.14500
C2308       C  0.96242152  0.12101359  0.96594844    -0.14500
C2309       C  0.95633672  0.14792629  0.96452848     0.07700
C2310       C  0.95337183  0.15986385  0.93988231    -0.14500
H2311       H  0.95647515  0.15489971  0.89800583     0.11600
H2312       H  0.97168485  0.08576872  0.94497651     0.11600
H2313       H  0.96461119  0.11141185  0.98485556     0.11600
H2314       H  0.94874237  0.18061122  0.93844527     0.11600
C2315       C  0.88458792  0.11822992  0.06266818    -0.14500
C2316       C  0.91101863  0.11700410  0.05433186     0.07700
C2317       C  0.92261227  0.09238003  0.05018916    -0.14500
C2318       C  0.90787522  0.06948968  0.05301672    -0.14500
C2319       C  0.88134362  0.07056642  0.06062514     0.07700
C2320       C  0.86990376  0.09505104  0.06620254    -0.14500
H2321       H  0.87525906  0.13707285  0.06611725     0.11600
H2322       H  0.94283657  0.09083253  0.04368286     0.11600
H2323       H  0.91720910  0.05076218  0.04893014     0.11600
H2324       H  0.84950131  0.09628922  0.07217712     0.11600
C2325       C  0.71062887  0.91628886  0.93928687    -0.14500
C2326       C  0.68923131  0.92369481  0.95495324     0.07700
C2327       C  0.67399194  0.90416741  0.96729998    -0.14500
C2328       C  0.67908146  0.87759675  0.96266305    -0.14500
C2329       C  0.69972344  0.87019086  0.94592152     0.07700
C2330       C  0.71596996  0.88976258  0.93497775    -0.14500
H2331       H  0.72282021  0.93099520  0.92982776     0.11600
H2332       H  0.65735938  0.90941968  0.97954054     0.11600
H2333       H  0.66632616  0.86293826  0.97142548     0.11600
H2334       H  0.73212708  0.88466685  0.92206191     0.11600
C2335       C  0.73343697  0.01177625  0.02706476    -0.14500
C2336       C  0.73228364  0.01377619  0.99955295     0.07700
C2337       C  0.75592771  0.01655805  0.98534688    -0.14500
C2338       C  0.78019404  0.01605258  0.99822721    -0.14500
C2339       C  0.78134853  0.01317669  0.02563689     0.07700
C2340       C  0.75768611  0.01166499  0.03997049    -0.14500
H2341       H  0.71564985  0.00951257  0.03857611     0.11600
H2342       H  0.75578055  0.01804519  0.96410197     0.11600
H2343       H  0.79805565  0.01731639  0.98667931     0.11600
H2344       H  0.75790723  0.00926611  0.06113585     0.11600
C2345       C  0.55311639  0.19047115  0.89304287    -0.14500
C2346       C  0.56725376  0.20430540  0.91238221     0.07700
C2347       C  0.58511866  0.22380687  0.90469220    -0.14500
C2348       C  0.58935485  0.22882285  0.87804865    -0.14500
C2349       C  0.57608753  0.21410851  0.85872143     0.07700
C2350       C  0.55763905  0.19519641  0.86644849    -0.14500
H2351       H  0.53923823  0.17523531  0.89841462     0.11600
H2352       H  0.59616443  0.23478444  0.91921451     0.11600
H2353       H  0.60378105  0.24351493  0.87260885     0.11600
H2354       H  0.54712964  0.18364995  0.85196583     0.11600
C2355       C  0.60511076  0.06822639  0.96696337    -0.14500
C2356       C  0.63216257  0.06964114  0.96171791     0.07700
C2357       C  0.64400663  0.09426204  0.95806766    -0.14500
C2358       C  0.62908299  0.11727223  0.96128021    -0.14500
C2359       C  0.60208415  0.11576637  0.96742278     0.07700
C2360       C  0.59016236  0.09101695  0.96949103    -0.14500
H2361       H  0.59557473  0.04932907  0.96954927     0.11600
H2362       H  0.66484735  0.09568939  0.95394969     0.11600
H2363       H  0.63869383  0.13619987  0.95944667     0.11600
H2364       H  0.56948508  0.08924799  0.97426058     0.11600
C2365       C  0.61248751  0.10213924  0.20989197    -0.14500
C2366       C  0.60505878  0.08236211  0.19221106     0.07700
C2367       C  0.62462358  0.06690200  0.18012716    -0.14500
C2368       C  0.65116964  0.07189933  0.18477865    -0.14500
C2369       C  0.65857280  0.09213627  0.20192352     0.07700
C2370       C  0.63899900  0.10685009  0.21485481    -0.14500
H2371       H  0.59785667  0.11431434  0.21948638     0.11600
H2372       H  0.61947535  0.05150990  0.16634276     0.11600
H2373       H  0.66587237  0.06024569  0.17466387     0.11600
H2374       H  0.64417222  0.12270518  0.22810104     0.11600
C2375       C  0.55701653  0.14122780  0.10469211    -0.14500
C2376       C  0.54886310  0.11476545  0.10332042     0.07700
C2377       C  0.54479693  0.10323987  0.07863330    -0.14500
C2378       C  0.54764060  0.11817204  0.05580036    -0.14500
C2379       C  0.55523391  0.14473975  0.05712247     0.07700
C2380       C  0.56060198  0.15602875  0.08167240    -0.14500
H2381       H  0.56035800  0.15050145  0.12357333     0.11600
H2382       H  0.53839430  0.08297220  0.07702659     0.11600
H2383       H  0.54368338  0.10898111  0.03697864     0.11600
H2384       H  0.56652621  0.17644564  0.08308045     0.11600
C2385       C  0.40250738  0.94542001  0.81032296    -0.14500
C2386       C  0.40980809  0.96415249  0.82919806     0.07700
C2387       C  0.39010207  0.97877588  0.84203778    -0.14500
C2388       C  0.36358629  0.97373464  0.83716214    -0.14500
C2389       C  0.35628009  0.95428392  0.81904350     0.07700
C2390       C  0.37599094  0.94067798  0.80513858    -0.14500
H2391       H  0.41725656  0.93399631  0.80001528     0.11600
H2392       H  0.39512499  0.99340146  0.85667560     0.11600
H2393       H  0.34882090  0.98460592  0.84803083     0.11600
H2394       H  0.37094375  0.92553037  0.79104598     0.11600
C2395       C  0.57950460  0.97008021  0.87639834    -0.14500
C2396       C  0.55510315  0.97660933  0.88746409     0.07700
C2397       C  0.55384051  0.98439819  0.91395065    -0.14500
C2398       C  0.57655555  0.98625419  0.92905606    -0.14500
C2399       C  0.60114032  0.98098469  0.91781824     0.07700
C2400       C  0.60248597  0.97269275  0.89139357    -0.14500
H2401       H  0.58085194  0.96387964  0.85605698     0.11600
H2402       H  0.53513644  0.98913628  0.92300809     0.11600
H2403       H  0.57496518  0.99283183  0.94926852     0.11600
H2404       H  0.62129464  0.96847918  0.88232290     0.11600
C2405       C  0.30606192  0.12977801  0.08615765    -0.14500
C2406       C  0.32644266  0.12172069  0.06945643     0.07700
C2407       C  0.34149733  0.14083018  0.05624231    -0.14500
C2408       C  0.33709577  0.16759111  0.06078136    -0.14500
C2409       C  0.31730994  0.17561769  0.07828454     0.07700
C2410       C  0.30140412  0.15645221  0.09037559    -0.14500
H2411       H  0.29407472  0.11544880  0.09642737     0.11600
H2412       H  0.35740555  0.13509909  0.04327527     0.11600
H2413       H  0.34958475  0.18192862  0.05114752     0.11600
H2414       H  0.28596597  0.16199516  0.10397066     0.11600
C2415       C  0.25665814  0.03377466  0.04181570    -0.14500
C2416       C  0.28020950  0.03121003  0.02745796     0.07700
C2417       C  0.27886502  0.02765881  0.00013158    -0.14500
C2418       C  0.25453260  0.02745453  0.98735452    -0.14500
C2419       C  0.23101720  0.03122615  0.00156803     0.07700
C2420       C  0.23235528  0.03396429  0.02900464    -0.14500
H2421       H  0.25704001  0.03678363  0.06290049     0.11600
H2422       H  0.29664273  0.02563525  0.98855752     0.11600
H2423       H  0.25425742  0.02536644  0.96615959     0.11600
H2424       H  0.21468756  0.03700682  0.04051516     0.11600
C2425       C  0.43793922  0.05689971  0.09385305    -0.14500
C2426       C  0.41366342  0.06344151  0.10505965     0.07700
C2427       C  0.41275619  0.07305642  0.13102480    -0.14500
C2428       C  0.43589507  0.07584328  0.14563582    -0.14500
C2429       C  0.45999240  0.06821113  0.13467015     0.07700
C2430       C  0.46083572  0.05897371  0.10862476    -0.14500
H2431       H  0.43911236  0.04924080  0.07399293     0.11600
H2432       H  0.39415397  0.07821542  0.14003169     0.11600
H2433       H  0.43489669  0.08312414  0.16563671     0.11600
H2434       H  0.47932680  0.05333064  0.09964900     0.11600
C2435       C  0.42892805  0.82508354  0.11869148    -0.14500
C2436       C  0.44859047  0.84281287  0.11103094     0.07700
C2437       C  0.46395858  0.85510378  0.13051062    -0.14500
C2438       C  0.45893563  0.85070735  0.15713370    -0.14500
C2439       C  0.43876205  0.83359967  0.16477568     0.07700
C2440       C  0.42418290  0.82037312  0.14533037    -0.14500
H2441       H  0.41681877  0.81533459  0.10414903     0.11600
H2442       H  0.47928164  0.86891842  0.12523903     0.11600
H2443       H  0.47052552  0.86102081  0.17171641     0.11600
H2444       H  0.40840631  0.80711115  0.15069618     0.11600
C2445       C  0.45725678  0.88991918  0.94146345    -0.14500
C2446       C  0.46165079  0.90205514  0.96581841     0.07700
C2447       C  0.46800459  0.92895005  0.96658999    -0.14500
C2448       C  0.47036904  0.94345158  0.94342260    -0.14500
C2449       C  0.46708454  0.93118973  0.91894456     0.07700
C2450       C  0.46037294  0.90431298  0.91812453    -0.14500
H2451       H  0.45233141  0.86921266  0.94048021     0.11600
H2452       H  0.47123050  0.93876663  0.98523209     0.11600
H2453       H  0.47571203  0.96405174  0.94464043     0.11600
H2454       H  0.45771997  0.89442519  0.89944693     0.11600
C2455       C  0.38430486  0.92889263  0.05140727    -0.14500
C2456       C  0.41156618  0.92969252  0.05640691     0.07700
C2457       C  0.42250974  0.95279995  0.06680963    -0.14500
C2458       C  0.40681225  0.97501261  0.07077828    -0.14500
C2459       C  0.37994572  0.97442279  0.06464242     0.07700
C2460       C  0.36863086  0.95115386  0.05540112    -0.14500
H2461       H  0.37520538  0.91135486  0.04347237     0.11600
H2462       H  0.44332792  0.95402488  0.07100475     0.11600
H2463       H  0.41584287  0.99306025  0.07764581     0.11600
H2464       H  0.34801403  0.95056843  0.05017916     0.11600
C2465       C  0.67972623  0.14003286  0.55544741    -0.14500
C2466       C  0.69024599  0.12109102  0.57272730     0.07700
C2467       C  0.70613097  0.12938275  0.59361248    -0.14500
C2468       C  0.71071374  0.15613996  0.59762910    -0.14500
C2469       C  0.69917769  0.17506459  0.58107033     0.07700
C2470       C  0.68395487  0.16680260  0.55973721    -0.14500
H2471       H  0.66741734  0.13426098  0.53909051     0.11600
H2472       H  0.71447527  0.11527889  0.60720783     0.11600
H2473       H  0.72244518  0.16206091  0.61436341     0.11600
H2474       H  0.67500497  0.18102443  0.54665325     0.11600
C2475       C  0.73493856  0.03026317  0.49858235    -0.14500
C2476       C  0.73373167  0.03141797  0.52615017     0.07700
C2477       C  0.75743916  0.03169506  0.54041218    -0.14500
C2478       C  0.78173283  0.03196556  0.52739320    -0.14500
C2479       C  0.78293211  0.03155030  0.49979567     0.07700
C2480       C  0.75923877  0.03010187  0.48557348    -0.14500
H2481       H  0.71708784  0.03008533  0.48702824     0.11600
H2482       H  0.75724106  0.03280973  0.56168434     0.11600
H2483       H  0.79955485  0.03313525  0.53893518     0.11600
H2484       H  0.75940480  0.02990255  0.46427471     0.11600
C2485       C  0.38999337  0.06839245  0.67773467    -0.14500
C2486       C  0.40897200  0.08243003  0.69219886     0.07700
C2487       C  0.40074053  0.09981977  0.71190000    -0.14500
C2488       C  0.37402636  0.10361790  0.71662831    -0.14500
C2489       C  0.35499655  0.09043191  0.70144068     0.07700
C2490       C  0.36321842  0.07252348  0.68217005    -0.14500
H2491       H  0.39581629  0.05489099  0.66231243     0.11600
H2492       H  0.41492583  0.11079506  0.72336879     0.11600
H2493       H  0.36831297  0.11765393  0.73160876     0.11600
H2494       H  0.34900910  0.06211183  0.67022203     0.11600
C2495       C  0.49956001  0.05190534  0.76098819    -0.14500
C2496       C  0.49984656  0.03767753  0.73721785     0.07700
C2497       C  0.50152749  0.01012862  0.73823441    -0.14500
C2498       C  0.50182872  0.99705405  0.76247296    -0.14500
C2499       C  0.50003161  0.01122450  0.78622157     0.07700
C2500       C  0.49945942  0.03882625  0.78520187    -0.14500
H2501       H  0.49818178  0.07316970  0.76091381     0.11600
H2502       H  0.50185706  0.99863340  0.72029666     0.11600
H2503       H  0.50225191  0.97575261  0.76254408     0.11600
H2504       H  0.49811329  0.05031792  0.80309893     0.11600
C2505       C  0.55422069  0.06882530  0.60942019    -0.14500
C2506       C  0.55548786  0.07326436  0.63665694     0.07700
C2507       C  0.58004402  0.07486063  0.64892754    -0.14500
C2508       C  0.60302911  0.07073020  0.63418523    -0.14500
C2509       C  0.60167517  0.06560217  0.60694199     0.07700
C2510       C  0.57705884  0.06531951  0.59465632    -0.14500
H2511       H  0.53537385  0.06761290  0.59960197     0.11600
H2512       H  0.58136875  0.07812421  0.66993533     0.11600
H2513       H  0.62182022  0.07115268  0.64413128     0.11600
H2514       H  0.57536849  0.06134570  0.57379604     0.11600
C2515       C  0.33175632  0.87996366  0.46366701    -0.14500
C2516       C  0.31476921  0.87190563  0.44362104     0.07700
C2517       C  0.30121400  0.89101821  0.42888549    -0.14500
C2518       C  0.30572233  0.91777812  0.43319947    -0.14500
C2519       C  0.32353429  0.92580717  0.45259114     0.07700
C2520       C  0.33593239  0.90665062  0.46826148    -0.14500
H2521       H  0.34227542  0.86564532  0.47540689     0.11600
H2522       H  0.28797927  0.88530013  0.41325048     0.11600
H2523       H  0.29584228  0.93210518  0.42092482     0.11600
H2524       H  0.34976587  0.91220734  0.48342181     0.11600
C2525       C  0.28124633  0.01377914  0.52730935    -0.14500
C2526       C  0.28228362  0.01665422  0.49985319     0.07700
C2527       C  0.25857622  0.02028900  0.48603771    -0.14500
C2528       C  0.23434726  0.01937640  0.49917504    -0.14500
C2529       C  0.23333563  0.01530783  0.52646336     0.07700
C2530       C  0.25708190  0.01330000  0.54046556    -0.14500
H2531       H  0.29906333  0.01092413  0.53856042     0.11600
H2532       H  0.25863498  0.02256802  0.46486182     0.11600
H2533       H  0.21640388  0.02116183  0.48790436     0.11600
H2534       H  0.25698214  0.01005890  0.56152171     0.11600
C2535       C  0.46158845  0.19099731  0.39380473    -0.14500
C2536       C  0.44740526  0.20495349  0.41310541     0.07700
C2537       C  0.42971021  0.22450937  0.40523925    -0.14500
C2538       C  0.42576198  0.22953848  0.37853558    -0.14500
C2539       C  0.43910317  0.21477727  0.35920831     0.07700
C2540       C  0.45733572  0.19572783  0.36711456    -0.14500
H2541       H  0.47533634  0.17570931  0.39929540     0.11600
H2542       H  0.41863603  0.23561138  0.41968731     0.11600
H2543       H  0.41149985  0.24434373  0.37304980     0.11600
H2544       H  0.46788779  0.18408801  0.35269964     0.11600
C2545       C  0.47383011  0.10709613  0.58062655    -0.14500
C2546       C  0.46638863  0.11755246  0.60496981     0.07700
C2547       C  0.45527092  0.14291169  0.60606943    -0.14500
C2548       C  0.45179612  0.15763593  0.58297815    -0.14500
C2549       C  0.46027808  0.14743383  0.55877827     0.07700
C2550       C  0.47109075  0.12198725  0.55783988    -0.14500
H2551       H  0.48265624  0.08773706  0.57933035     0.11600
H2552       H  0.44940455  0.15131308  0.62476290     0.11600
H2553       H  0.44335288  0.17716211  0.58410950     0.11600
H2554       H  0.47749734  0.11354627  0.53933111     0.11600
C2555       C  0.42541696  0.09163580  0.47563507    -0.14500
C2556       C  0.41460481  0.11618174  0.46949789     0.07700
C2557       C  0.38875714  0.11752317  0.45973647    -0.14500
C2558       C  0.37381297  0.09457231  0.45654996    -0.14500
C2559       C  0.38430619  0.07019399  0.46394070     0.07700
C2560       C  0.41030699  0.06891137  0.47317766    -0.14500
H2561       H  0.44517552  0.09013266  0.48338363     0.11600
H2562       H  0.38006271  0.13634717  0.45486612     0.11600
H2563       H  0.35386671  0.09595460  0.44930482     0.11600
H2564       H  0.41893533  0.05021788  0.47867984     0.11600
C2565       C  0.61273522  0.94391649  0.31158495    -0.14500
C2566       C  0.60473846  0.96318692  0.32962583     0.07700
C2567       C  0.62392798  0.97864433  0.34223243    -0.14500
C2568       C  0.65061496  0.97403016  0.33786399    -0.14500
C2569       C  0.65860033  0.95418116  0.32048316     0.07700
C2570       C  0.63942100  0.93958848  0.30690473    -0.14500
H2571       H  0.59840725  0.93180530  0.30152268     0.11600
H2572       H  0.61837209  0.99369099  0.35625707     0.11600
H2573       H  0.66497957  0.98565860  0.34843144     0.11600
H2574       H  0.64502814  0.92410399  0.29338173     0.11600
C2575       C  0.51320216  0.03653468  0.28407224    -0.14500
C2576       C  0.51454421  0.00897048  0.28538330     0.07700
C2577       C  0.51479085  0.99454585  0.26171828    -0.14500
C2578       C  0.51515717  0.00740419  0.23735783    -0.14500
C2579       C  0.51486500  0.03499849  0.23605089     0.07700
C2580       C  0.51313156  0.04938956  0.25968783    -0.14500
H2581       H  0.51293233  0.04820440  0.30189886     0.11600
H2582       H  0.51592958  0.97327159  0.26199666     0.11600
H2583       H  0.51644116  0.99573716  0.21957092     0.11600
H2584       H  0.51291863  0.07069365  0.25942069     0.11600
C2585       C  0.43436617  0.96863353  0.37616973    -0.14500
C2586       C  0.45886883  0.97476296  0.38716014     0.07700
C2587       C  0.46014193  0.98290089  0.41354768    -0.14500
C2588       C  0.43739291  0.98556448  0.42858160    -0.14500
C2589       C  0.41274282  0.98077498  0.41738909     0.07700
C2590       C  0.41134785  0.97206516  0.39109967    -0.14500
H2591       H  0.43297735  0.96223461  0.35590062     0.11600
H2592       H  0.47888987  0.98741554  0.42255263     0.11600
H2593       H  0.43902925  0.99243496  0.44868736     0.11600
H2594       H  0.39248061  0.96818585  0.38208091     0.11600
C2595       C  0.55118709  0.86017622  0.63086038    -0.14500
C2596       C  0.56366648  0.84446213  0.61173850     0.07700
C2597       C  0.57977466  0.82368374  0.61983075    -0.14500
C2598       C  0.58412260  0.81929882  0.64656688    -0.14500
C2599       C  0.57282339  0.83593439  0.66567535     0.07700
C2600       C  0.55587283  0.85607133  0.65758429    -0.14500
H2601       H  0.53863661  0.87638963  0.62514724     0.11600
H2602       H  0.58940846  0.81117017  0.60550359     0.11600
H2603       H  0.59722758  0.80350399  0.65218298     0.11600
H2604       H  0.54682390  0.86910393  0.67182805     0.11600
C2605       C  0.54378813  0.92598875  0.46580875    -0.14500
C2606       C  0.55282099  0.89984736  0.46503193     0.07700
C2607       C  0.55998750  0.88880279  0.44077040    -0.14500
C2608       C  0.55687287  0.90341297  0.41751579    -0.14500
C2609       C  0.54743601  0.92947669  0.41842267     0.07700
C2610       C  0.54142699  0.94073113  0.44283330    -0.14500
H2611       H  0.53842188  0.93506839  0.48434736     0.11600
H2612       H  0.56705018  0.86873142  0.43972856     0.11600
H2613       H  0.56164728  0.89433688  0.39882938     0.11600
H2614       H  0.53392755  0.96064385  0.44407342     0.11600
C2615       C  0.58903373  0.95576466  0.54935119    -0.14500
C2616       C  0.59959355  0.93082047  0.55421027     0.07700
C2617       C  0.62579725  0.92876532  0.56295218    -0.14500
C2618       C  0.64126965  0.95138612  0.56636940    -0.14500
C2619       C  0.63091738  0.97618357  0.56024948     0.07700
C2620       C  0.60461406  0.97814676  0.55204598    -0.14500
H2621       H  0.56901591  0.95790305  0.54246877     0.11600
H2622       H  0.63434306  0.90965963  0.56689541     0.11600
H2623       H  0.66145065  0.94945327  0.57280020     0.11600
H2624       H  0.59609332  0.99715136  0.54753325     0.11600
C2625       C  0.33481130  0.40505968  0.55557042    -0.14500
C2626       C  0.32449833  0.42414715  0.57284938     0.07700
C2627       C  0.30829949  0.41598498  0.59366452    -0.14500
C2628       C  0.30339173  0.38921301  0.59769455    -0.14500
C2629       C  0.31492336  0.37014738  0.58122447     0.07700
C2630       C  0.33026466  0.37833085  0.55986444    -0.14500
H2631       H  0.34726259  0.41067125  0.53921785     0.11600
H2632       H  0.30001320  0.43019295  0.60723076     0.11600
H2633       H  0.29152050  0.38338021  0.61440884     0.11600
H2634       H  0.33918568  0.36404047  0.54679271     0.11600
C2635       C  0.62534828  0.47996862  0.67930495    -0.14500
C2636       C  0.60613411  0.46517403  0.69274166     0.07700
C2637       C  0.61416481  0.44630822  0.71113661    -0.14500
C2638       C  0.64083777  0.44176613  0.71545713    -0.14500
C2639       C  0.66005920  0.45570550  0.70117661     0.07700
C2640       C  0.65208051  0.47511830  0.68332517    -0.14500
H2641       H  0.61974588  0.49464672  0.66494422     0.11600
H2642       H  0.59984677  0.43467224  0.72181181     0.11600
H2643       H  0.64637415  0.42659574  0.72933047     0.11600
H2644       H  0.66645872  0.48620843  0.67216129     0.11600
C2645       C  0.46076127  0.47561202  0.61021625    -0.14500
C2646       C  0.45954495  0.47512981  0.63780452     0.07700
C2647       C  0.43510609  0.47672666  0.65036548    -0.14500
C2648       C  0.41220555  0.47993365  0.63540926    -0.14500
C2649       C  0.41344605  0.48108720  0.60769916     0.07700
C2650       C  0.43793316  0.47828038  0.59528169    -0.14500
H2651       H  0.47955150  0.47434153  0.60021951     0.11600
H2652       H  0.43386129  0.47654540  0.67163525     0.11600
H2653       H  0.39358665  0.48198387  0.64554819     0.11600
H2654       H  0.43959105  0.47912302  0.57405510     0.11600
C2655       C  0.58299344  0.32352281  0.40587791    -0.14500
C2656       C  0.56435075  0.34219163  0.41375549     0.07700
C2657       C  0.55003443  0.35594720  0.39445805    -0.14500
C2658       C  0.55515175  0.35197104  0.36777205    -0.14500
C2659       C  0.57433688  0.33384285  0.35993237     0.07700
C2660       C  0.58779442  0.31923549  0.37921038    -0.14500
H2661       H  0.59426086  0.31264973  0.42030301     0.11600
H2662       H  0.53556810  0.37056783  0.39996527     0.11600
H2663       H  0.54445480  0.36338575  0.35332948     0.11600
H2664       H  0.60278704  0.30514121  0.37373477     0.11600
C2665       C  0.47759659  0.27298425  0.50319988    -0.14500
C2666       C  0.49214687  0.24945395  0.50447096     0.07700
C2667       C  0.51948362  0.25091917  0.50755190    -0.14500
C2668       C  0.53212437  0.27537339  0.50810909    -0.14500
C2669       C  0.51774393  0.29887999  0.50510965     0.07700
C2670       C  0.49026779  0.29741958  0.50330750    -0.14500
H2671       H  0.45646894  0.27251503  0.50076502     0.11600
H2672       H  0.53117429  0.23315522  0.50875646     0.11600
H2673       H  0.55333953  0.27576085  0.50958884     0.11600
H2674       H  0.47861947  0.31510158  0.50102541     0.11600
C2675       C  0.54427119  0.42680765  0.55814910    -0.14500
C2676       C  0.55266410  0.40047732  0.55919458     0.07700
C2677       C  0.55922769  0.38939442  0.58355698    -0.14500
C2678       C  0.55626165  0.40421257  0.60667731    -0.14500
C2679       C  0.54756155  0.43050769  0.60554514     0.07700
C2680       C  0.54205013  0.44175846  0.58102551    -0.14500
H2681       H  0.53935151  0.43585845  0.53949890     0.11600
H2682       H  0.56575055  0.36914844  0.58476735     0.11600
H2683       H  0.56061684  0.39512614  0.62543403     0.11600
H2684       H  0.53510031  0.46185873  0.57961634     0.11600
C2685       C  0.67816838  0.66728964  0.46077772    -0.14500
C2686       C  0.69727705  0.67490882  0.44241900     0.07700
C2687       C  0.71154503  0.65537944  0.42888150    -0.14500
C2688       C  0.70620301  0.62877302  0.43295034    -0.14500
C2689       C  0.68677682  0.62115253  0.45093455     0.07700
C2690       C  0.67310247  0.64063833  0.46514562    -0.14500
H2691       H  0.66687944  0.68189334  0.47144510     0.11600
H2692       H  0.72631856  0.66064145  0.41445922     0.11600
H2693       H  0.71705735  0.61419781  0.42180511     0.11600
H2694       H  0.65790302  0.63532363  0.47910251     0.11600
C2695       C  0.60412071  0.47701164  0.47332589    -0.14500
C2696       C  0.63014599  0.47535415  0.46412050     0.07700
C2697       C  0.64016175  0.45085369  0.45634185    -0.14500
C2698       C  0.62475042  0.42812863  0.45935804    -0.14500
C2699       C  0.59892600  0.42988764  0.46927435     0.07700
C2700       C  0.58858159  0.45458691  0.47558092    -0.14500
H2701       H  0.59577345  0.49580178  0.47897397     0.11600
H2702       H  0.66006343  0.44918797  0.44895240     0.11600
H2703       H  0.63306313  0.40917061  0.45428655     0.11600
H2704       H  0.56884198  0.45643391  0.48338403     0.11600
C2705       C  0.39886948  0.59873873  0.31385658    -0.14500
C2706       C  0.40627083  0.57959434  0.33222380     0.07700
C2707       C  0.38661299  0.56541718  0.34566424    -0.14500
C2708       C  0.36006514  0.57121308  0.34171256    -0.14500
C2709       C  0.35274537  0.59097876  0.32395389     0.07700
C2710       C  0.37238852  0.60425377  0.30963931    -0.14500
H2711       H  0.41355292  0.60990184  0.30317343     0.11600
H2712       H  0.39174860  0.55054211  0.36000057     0.11600
H2713       H  0.34533005  0.56056372  0.35283953     0.11600
H2714       H  0.36736095  0.61960941  0.29577575     0.11600
C2715       C  0.55136300  0.56351019  0.41559780    -0.14500
C2716       C  0.55233976  0.56748001  0.38827573     0.07700
C2717       C  0.57678397  0.56970607  0.37575930    -0.14500
C2718       C  0.59998271  0.56676235  0.39033451    -0.14500
C2719       C  0.59898258  0.56230329  0.41770083     0.07700
C2720       C  0.57442350  0.56125819  0.43021661    -0.14500
H2721       H  0.53261943  0.56196711  0.42563629     0.11600
H2722       H  0.57789839  0.57275139  0.35470093     0.11600
H2723       H  0.61868509  0.56771094  0.38018289     0.11600
H2724       H  0.57299410  0.55775740  0.45118783     0.11600
C2725       C  0.42991451  0.72652056  0.61664067    -0.14500
C2726       C  0.44762078  0.70689448  0.60887475     0.07700
C2727       C  0.46266404  0.69389117  0.62810012    -0.14500
C2728       C  0.45883349  0.69916671  0.65471048    -0.14500
C2729       C  0.44014984  0.71779244  0.66257952     0.07700
C2730       C  0.42636824  0.73209723  0.64330109    -0.14500
H2731       H  0.41835099  0.73704869  0.60219752     0.11600
H2732       H  0.47662612  0.67875255  0.62268170     0.11600
H2733       H  0.46985570  0.68803417  0.66912656     0.11600
H2734       H  0.41187414  0.74668667  0.64882638     0.11600
C2735       C  0.51916186  0.75130361  0.51720351    -0.14500
C2736       C  0.49179304  0.74967490  0.52007014     0.07700
C2737       C  0.47731948  0.77315789  0.52280577    -0.14500
C2738       C  0.49001091  0.79761642  0.52369312    -0.14500
C2739       C  0.51746584  0.79922629  0.52145936     0.07700
C2740       C  0.53181765  0.77578741  0.51764638    -0.14500
H2741       H  0.53084869  0.73361090  0.51515401     0.11600
H2742       H  0.45620245  0.77257201  0.52540241     0.11600
H2743       H  0.47837130  0.81518968  0.52677610     0.11600
H2744       H  0.55302258  0.77622828  0.51595605     0.11600
C2745       C  0.46838731  0.62001817  0.46625155    -0.14500
C2746       C  0.45820999  0.64571012  0.46452102     0.07700
C2747       C  0.44961350  0.65509969  0.44008117    -0.14500
C2748       C  0.45259861  0.63944550  0.41749785    -0.14500
C2749       C  0.46331866  0.61394184  0.41931454     0.07700
C2750       C  0.47062046  0.60420087  0.44396819    -0.14500
H2751       H  0.47477047  0.61213532  0.48498507     0.11600
H2752       H  0.44154675  0.67473408  0.43832501     0.11600
H2753       H  0.44678813  0.64730777  0.39858395     0.11600
H2754       H  0.47909049  0.58473542  0.44585000     0.11600
C2755       C  0.42458523  0.59178314  0.54931007    -0.14500
C2756       C  0.41277837  0.61640025  0.55304587     0.07700
C2757       C  0.38611114  0.61752430  0.56054251    -0.14500
C2758       C  0.37150551  0.59433385  0.56401021    -0.14500
C2759       C  0.38320323  0.56982887  0.55918193     0.07700
C2760       C  0.40987384  0.56879200  0.55202669    -0.14500
H2761       H  0.44497351  0.59032306  0.54332701     0.11600
H2762       H  0.37654815  0.63632812  0.56352448     0.11600
H2763       H  0.35097854  0.59555439  0.56953630     0.11600
H2764       H  0.41937222  0.55004767  0.54843478     0.11600
C2765       C  0.67997482  0.40723155  0.05661303    -0.14500
C2766       C  0.69236285  0.42656600  0.07209261     0.07700
C2767       C  0.71027695  0.41868752  0.09146976    -0.14500
C2768       C  0.71489117  0.39192828  0.09594186    -0.14500
C2769       C  0.70133169  0.37265868  0.08139354     0.07700
C2770       C  0.68425297  0.38058060  0.06135888    -0.14500
H2771       H  0.66606955  0.41262362  0.04146182     0.11600
H2772       H  0.72017679  0.43313566  0.10358970     0.11600
H2773       H  0.72819900  0.38633594  0.11155381     0.11600
H2774       H  0.67370474  0.36617331  0.04974290     0.11600
C2775       C  0.55113034  0.68908543  0.13019744    -0.14500
C2776       C  0.56553206  0.70338622  0.11129103     0.07700
C2777       C  0.58329624  0.72262566  0.11968772    -0.14500
C2778       C  0.58723909  0.72698166  0.14642129    -0.14500
C2779       C  0.57379512  0.71191949  0.16541008     0.07700
C2780       C  0.55540064  0.69316252  0.15707822    -0.14500
H2781       H  0.53728725  0.67405834  0.12422749     0.11600
H2782       H  0.59453043  0.73400811  0.10558973     0.11600
H2783       H  0.60161815  0.74158225  0.15216259     0.11600
H2784       H  0.54474504  0.68133879  0.17126268     0.11600
C2785       C  0.49594064  0.75331920  0.01830358    -0.14500
C2786       C  0.52329008  0.75179576  0.02109605     0.07700
C2787       C  0.53780575  0.77539724  0.02259414    -0.14500
C2788       C  0.52509297  0.79989652  0.02271594    -0.14500
C2789       C  0.49761038  0.80134292  0.02089816     0.07700
C2790       C  0.48329886  0.77775870  0.01797082    -0.14500
H2791       H  0.48421734  0.73558325  0.01700108     0.11600
H2792       H  0.55895381  0.77492009  0.02484181     0.11600
H2793       H  0.53669511  0.81761088  0.02500426     0.11600
H2794       H  0.46207791  0.77804901  0.01655410     0.11600
C2795       C  0.62570587  0.61819343  0.06378506    -0.14500
C2796       C  0.60049957  0.61697031  0.05239899     0.07700
C2797       C  0.59051810  0.59254491  0.04460611    -0.14500
C2798       C  0.60575605  0.56987096  0.04716445    -0.14500
C2799       C  0.63110661  0.57100412  0.05818265     0.07700
C2800       C  0.64073618  0.59526792  0.06705879    -0.14500
H2801       H  0.63377420  0.63685962  0.06995387     0.11600
H2802       H  0.57124578  0.59110670  0.03557657     0.11600
H2803       H  0.59769903  0.55136884  0.04048228     0.11600
H2804       H  0.66016890  0.59662793  0.07573016     0.11600
C2805       C  0.40195643  0.43959555  0.20750346    -0.14500
C2806       C  0.41034863  0.45905220  0.18991104     0.07700
C2807       C  0.39144498  0.47480825  0.17718068    -0.14500
C2808       C  0.36464102  0.47089283  0.18170648    -0.14500
C2809       C  0.35630972  0.45145649  0.19936484     0.07700
C2810       C  0.37522765  0.43595774  0.21231532    -0.14500
H2811       H  0.41601929  0.42709740  0.21745632     0.11600
H2812       H  0.39733004  0.48985095  0.16328876     0.11600
H2813       H  0.35048290  0.48298574  0.17139092     0.11600
H2814       H  0.36935900  0.42053449  0.22579318     0.11600
C2815       C  0.49749369  0.49134689  0.26186076    -0.14500
C2816       C  0.49813426  0.50581185  0.23819186     0.07700
C2817       C  0.49893484  0.53337881  0.23964301    -0.14500
C2818       C  0.49839385  0.54617637  0.26405431    -0.14500
C2819       C  0.49659158  0.53178016  0.28769249     0.07700
C2820       C  0.49652153  0.50417288  0.28630209    -0.14500
H2821       H  0.49669088  0.47005686  0.26149173     0.11600
H2822       H  0.49941257  0.54511236  0.22186938     0.11600
H2823       H  0.49837944  0.56748017  0.26431564     0.11600
H2824       H  0.49512698  0.49248317  0.30406097     0.11600
C2825       C  0.55584518  0.47785022  0.10976030    -0.14500
C2826       C  0.55742832  0.47286029  0.13688840     0.07700
C2827       C  0.58218424  0.47073904  0.14872448    -0.14500
C2828       C  0.60498949  0.47501480  0.13368427    -0.14500
C2829       C  0.60327572  0.48073015  0.10658069     0.07700
C2830       C  0.57847481  0.48144693  0.09469846    -0.14500
H2831       H  0.53684132  0.47936039  0.10019132     0.11600
H2832       H  0.58380422  0.46693216  0.16957556     0.11600
H2833       H  0.62398261  0.47421990  0.14332378     0.11600
H2834       H  0.57650362  0.48584486  0.07399516     0.11600
C2835       C  0.43294615  0.32188491  0.90334441    -0.14500
C2836       C  0.45042533  0.34170648  0.91101363     0.07700
C2837       C  0.46415249  0.35596786  0.89163181    -0.14500
C2838       C  0.45935029  0.35144294  0.86499542    -0.14500
C2839       C  0.44106778  0.33230340  0.85735630     0.07700
C2840       C  0.42846128  0.31707857  0.87675645    -0.14500
H2841       H  0.42229404  0.31050064  0.91788629     0.11600
H2842       H  0.47778177  0.37140064  0.89704003     0.11600
H2843       H  0.46942414  0.36333833  0.85044770     0.11600
H2844       H  0.41426706  0.30213248  0.87145657     0.11600
C2845       C  0.48030609  0.27304742  0.99883083    -0.14500
C2846       C  0.49475676  0.29661097  0.00101060     0.07700
C2847       C  0.52201961  0.29503988  0.00468968    -0.14500
C2848       C  0.53461675  0.27051108  0.00544226    -0.14500
C2849       C  0.52031471  0.24698088  0.00204612     0.07700
C2850       C  0.49293485  0.24856347  0.99914476    -0.14500
H2851       H  0.45925984  0.27353587  0.99577160     0.11600
H2852       H  0.53367393  0.31277734  0.00646908     0.11600
H2853       H  0.55576826  0.27007542  0.00760884     0.11600
H2854       H  0.48132454  0.23092492  0.99634489     0.11600
C2855       C  0.46336951  0.38404178  0.08164606    -0.14500
C2856       C  0.46030532  0.39710870  0.05762929     0.07700
C2857       C  0.46067198  0.42471649  0.05700599    -0.14500
C2858       C  0.46461992  0.43918902  0.07999806    -0.14500
C2859       C  0.46880882  0.42627737  0.10401671     0.07700
C2860       C  0.46777439  0.39853072  0.10468810    -0.14500
H2861       H  0.46343015  0.36273572  0.08238883     0.11600
H2862       H  0.45841579  0.43507796  0.03852103     0.11600
H2863       H  0.46523095  0.46046100  0.07879529     0.11600
H2864       H  0.47080579  0.38799994  0.12293890     0.11600
C2865       C  0.33421728  0.63846458  0.96818749    -0.14500
C2866       C  0.32217852  0.61916998  0.95239009     0.07700
C2867       C  0.30496547  0.62707709  0.93241104    -0.14500
C2868       C  0.30074116  0.65377427  0.92759988    -0.14500
C2869       C  0.31396173  0.67303730  0.94242622     0.07700
C2870       C  0.33032173  0.66516171  0.96309306    -0.14500
H2871       H  0.34758925  0.63298250  0.98378067     0.11600
H2872       H  0.29536929  0.61266978  0.91999760     0.11600
H2873       H  0.28799312  0.65930907  0.91150273     0.11600
H2874       H  0.34055440  0.67961409  0.97493051     0.11600
C2875       C  0.41066497  0.47685699  0.96507086    -0.14500
C2876       C  0.38335456  0.47475667  0.96147904     0.07700
C2877       C  0.37192808  0.44979434  0.95949603    -0.14500
C2878       C  0.38745237  0.42723215  0.96267498    -0.14500
C2879       C  0.41471280  0.42931523  0.96726737     0.07700
C2880       C  0.42626038  0.45436360  0.96762614    -0.14500
H2881       H  0.41988103  0.49603978  0.96635399     0.11600
H2882       H  0.35093832  0.44778243  0.95668065     0.11600
H2883       H  0.37802313  0.40813887  0.96209257     0.11600
H2884       H  0.44713342  0.45662444  0.97106556     0.11600
C2885       C  0.62229014  0.57132908  0.84242246    -0.14500
C2886       C  0.60308096  0.58646664  0.82946118     0.07700
C2887       C  0.61105287  0.60496026  0.81062367    -0.14500
C2888       C  0.63774482  0.60863216  0.80526954    -0.14500
C2889       C  0.65695940  0.59416557  0.81895428     0.07700
C2890       C  0.64895611  0.57529259  0.83737602    -0.14500
H2891       H  0.61678101  0.55694850  0.85714385     0.11600
H2892       H  0.59671339  0.61685683  0.80033606     0.11600
H2893       H  0.64335617  0.62348818  0.79106919     0.11600
H2894       H  0.66330788  0.56389702  0.84820463     0.11600
C2895       C  0.51380184  0.55279434  0.76281131    -0.14500
C2896       C  0.51366758  0.53885965  0.78677564     0.07700
C2897       C  0.51308127  0.51124390  0.78596895    -0.14500
C2898       C  0.51358635  0.49790428  0.76182237    -0.14500
C2899       C  0.51513205  0.51184769  0.73790138     0.07700
C2900       C  0.51473024  0.53946500  0.73869654    -0.14500
H2901       H  0.51439551  0.57409335  0.76266963     0.11600
H2902       H  0.51295900  0.49992358  0.80401498     0.11600
H2903       H  0.51388573  0.47660090  0.76196970     0.11600
H2904       H  0.51583766  0.55081176  0.72069869     0.11600
C2905       C  0.45876468  0.56933359  0.91503145    -0.14500
C2906       C  0.45742535  0.57446451  0.88790747     0.07700
C2907       C  0.43277909  0.57642271  0.87583170    -0.14500
C2908       C  0.40984116  0.57182799  0.89054550    -0.14500
C2909       C  0.41128907  0.56590896  0.91761620     0.07700
C2910       C  0.43596635  0.56540419  0.92979101    -0.14500
H2911       H  0.47763588  0.56792012  0.92476743     0.11600
H2912       H  0.43134224  0.58030490  0.85494014     0.11600
H2913       H  0.39100859  0.57248313  0.88069092     0.11600
H2914       H  0.43774287  0.56087401  0.95052960     0.11600
C2915       C  0.55494101  0.60994197  0.94079696    -0.14500
C2916       C  0.54809955  0.62243573  0.91716545     0.07700
C2917       C  0.54715933  0.65019146  0.91649323    -0.14500
C2918       C  0.55199789  0.66501396  0.93926714    -0.14500
C2919       C  0.55774547  0.65224702  0.96296182     0.07700
C2920       C  0.55950893  0.62470749  0.96347540    -0.14500
H2921       H  0.55589212  0.58869217  0.94202977     0.11600
H2922       H  0.54202355  0.66043017  0.89854823     0.11600
H2923       H  0.55011518  0.68623379  0.93866294     0.11600
H2924       H  0.56363769  0.61455574  0.98175658     0.11600
C2925       C  0.08119678  0.72492523  0.40383106    -0.14500
C2926       C  0.06448064  0.70464377  0.41203848     0.07700
C2927       C  0.05060718  0.69003666  0.39305881    -0.14500
C2928       C  0.05464456  0.69458319  0.36627871    -0.14500
C2929       C  0.07230994  0.71407907  0.35805723     0.07700
C2930       C  0.08490013  0.72976105  0.37708643    -0.14500
H2931       H  0.09189520  0.73662085  0.41805178     0.11600
H2932       H  0.03750107  0.67428010  0.39886514     0.11600
H2933       H  0.04456480  0.68234342  0.35206044     0.11600
H2934       H  0.09858711  0.74503578  0.37135602     0.11600
C2935       C  0.03534810  0.77191299  0.50419065    -0.14500
C2936       C  0.02103786  0.74820151  0.50322823     0.07700
C2937       C  0.99349921  0.74929203  0.50348156    -0.14500
C2938       C  0.98057126  0.77357320  0.50375829    -0.14500
C2939       C  0.99490728  0.79728191  0.50337447     0.07700
C2940       C  0.02242750  0.79618509  0.50405243    -0.14500
H2941       H  0.05662123  0.77178413  0.50388183     0.11600
H2942       H  0.98194030  0.73141423  0.50270655     0.11600
H2943       H  0.95930887  0.77374263  0.50308122     0.11600
H2944       H  0.03399323  0.81407435  0.50376308     0.11600
C2945       C  0.11572211  0.60075427  0.70899984    -0.14500
C2946       C  0.10783002  0.58163680  0.69080365     0.07700
C2947       C  0.12717917  0.56641496  0.67800760    -0.14500
C2948       C  0.15388302  0.57093796  0.68258397    -0.14500
C2949       C  0.16174764  0.59045009  0.70038557     0.07700
C2950       C  0.14238268  0.60497887  0.71388218    -0.14500
H2951       H  0.10132363  0.61275578  0.71914176     0.11600
H2952       H  0.12173163  0.55154036  0.66377631     0.11600
H2953       H  0.16834515  0.55943382  0.67195783     0.11600
H2954       H  0.14783410  0.62029137  0.72763668     0.11600
C2955       C  0.05759549  0.64377893  0.60544815    -0.14500
C2956       C  0.05212716  0.61662506  0.60352222     0.07700
C2957       C  0.05122844  0.60485879  0.57863804    -0.14500
C2958       C  0.05425390  0.62010868  0.55608408    -0.14500
C2959       C  0.05879050  0.64730739  0.55791775     0.07700
C2960       C  0.06122492  0.65901729  0.58272038    -0.14500
H2961       H  0.05853946  0.65329140  0.62448938     0.11600
H2962       H  0.04701720  0.58407169  0.57654509     0.11600
H2963       H  0.05249422  0.61071775  0.53702405     0.11600
H2964       H  0.06466317  0.67997646  0.58446994     0.11600
C2965       C  0.17304983  0.40608094  0.46374470    -0.14500
C2966       C  0.18784500  0.42524000  0.45024317     0.07700
C2967       C  0.20751286  0.41720812  0.43273086    -0.14500
C2968       C  0.21210163  0.39047836  0.42855000    -0.14500
C2969       C  0.19681369  0.37128553  0.44148909     0.07700
C2970       C  0.17736643  0.37934143  0.45926564    -0.14500
H2971       H  0.15756915  0.41175041  0.47724407     0.11600
H2972       H  0.21916919  0.43155490  0.42210919     0.11600
H2973       H  0.22718707  0.38488327  0.41458210     0.11600
H2974       H  0.16528030  0.36502721  0.46943060     0.11600
C2975       C  0.23466455  0.51618375  0.52557180    -0.14500
C2976       C  0.23381594  0.51468489  0.49801524     0.07700
C2977       C  0.25768330  0.51416946  0.48394418    -0.14500
C2978       C  0.28179673  0.51373905  0.49717599    -0.14500
C2979       C  0.28262226  0.51424859  0.52477903     0.07700
C2980       C  0.25877968  0.51618631  0.53878593    -0.14500
H2981       H  0.21666734  0.51667494  0.53696772     0.11600
H2982       H  0.25773503  0.51290302  0.46268160     0.11600
H2983       H  0.29975574  0.51227721  0.48580464     0.11600
H2984       H  0.25866275  0.51656369  0.56008250     0.11600
C2985       C  0.14349626  0.59575930  0.45701554    -0.14500
C2986       C  0.13287307  0.57132176  0.46409350     0.07700
C2987       C  0.10667453  0.56989667  0.47277513    -0.14500
C2988       C  0.09141206  0.59248710  0.47491647    -0.14500
C2989       C  0.10220828  0.61709221  0.46898239     0.07700
C2990       C  0.12833736  0.61863538  0.45987885    -0.14500
H2991       H  0.16360848  0.59722129  0.45017152     0.11600
H2992       H  0.09794749  0.55115324  0.47798908     0.11600
H2993       H  0.07145989  0.59080340  0.48219603     0.11600
H2994       H  0.13704205  0.63751931  0.45521219     0.11600
C2995       C  0.89142321  0.47783595  0.33774891    -0.14500
C2996       C  0.91068363  0.46064668  0.32769002     0.07700
C2997       C  0.90283648  0.43943860  0.31187759    -0.14500
C2998       C  0.87619038  0.43498138  0.30705485    -0.14500
C2999       C  0.85695348  0.45142513  0.31828228     0.07700
C3000       C  0.86480988  0.47312038  0.33328701    -0.14500
H3001       H  0.89681422  0.49442689  0.34995416     0.11600
H3002       H  0.91719615  0.42588733  0.30385217     0.11600
H3003       H  0.87059550  0.41800472  0.29546802     0.11600
H3004       H  0.85035842  0.48615814  0.34197345     0.11600
C3005       C  0.05408191  0.47737900  0.41527551    -0.14500
C3006       C  0.05525853  0.47425845  0.38785665     0.07700
C3007       C  0.07971731  0.47454957  0.37519419    -0.14500
C3008       C  0.10265824  0.47901717  0.38977133    -0.14500
C3009       C  0.10144091  0.48264337  0.41725600     0.07700
C3010       C  0.07694833  0.48122332  0.42988063    -0.14500
H3011       H  0.03531019  0.47714680  0.42537538     0.11600
H3012       H  0.08095442  0.47234937  0.35403558     0.11600
H3013       H  0.12130678  0.47990768  0.37951715     0.11600
H3014       H  0.07534231  0.48395051  0.45095392     0.11600
C3015       C  0.95913480  0.34790150  0.65543984    -0.14500
C3016       C  0.93872668  0.33141936  0.66382402     0.07700
C3017       C  0.92354488  0.31809014  0.64490841    -0.14500
C3018       C  0.92781943  0.32221664  0.61809110    -0.14500
C3019       C  0.94760619  0.33945936  0.60968425     0.07700
C3020       C  0.96369422  0.35169919  0.62861815    -0.14500
H3021       H  0.97122830  0.35823466  0.66959069     0.11600
H3022       H  0.90761343  0.30525531  0.65082553     0.11600
H3023       H  0.91519728  0.31246505  0.60399544     0.11600
H3024       H  0.97918686  0.36508626  0.62276618     0.11600
C3025       C  0.98028404  0.27235051  0.51752967    -0.14500
C3026       C  0.99427031  0.29623708  0.51912576     0.07700
C3027       C  0.02184160  0.29531573  0.51983139    -0.14500
C3028       C  0.03503218  0.27111310  0.51995436    -0.14500
C3029       C  0.02096119  0.24724096  0.51979443     0.07700
C3030       C  0.99345530  0.24815215  0.51808857    -0.14500
H3031       H  0.95901835  0.27228248  0.51704068     0.11600
H3032       H  0.03321444  0.31328221  0.52109001     0.11600
H3033       H  0.05625701  0.27112561  0.52139328     0.11600
H3034       H  0.98205778  0.23015420  0.51787822     0.11600
C3035       C  0.95282094  0.38591538  0.43920574    -0.14500
C3036       C  0.95771607  0.39735208  0.46381017     0.07700
C3037       C  0.96487799  0.42402578  0.46514032    -0.14500
C3038       C  0.96802644  0.43886793  0.44232673    -0.14500
C3039       C  0.96469615  0.42719062  0.41760865     0.07700
C3040       C  0.95670111  0.40067595  0.41616572    -0.14500
H3041       H  0.94718557  0.36541699  0.43778338     0.11600
H3042       H  0.96842899  0.43334662  0.48397721     0.11600
H3043       H  0.97422013  0.45919559  0.44401156     0.11600
H3044       H  0.95384066  0.39131690  0.39724706     0.11600
C3045       C  0.80356356  0.65580058  0.59066529    -0.14500
C3046       C  0.81965398  0.67520452  0.57917085     0.07700
C3047       C  0.83953613  0.66747212  0.56164531    -0.14500
C3048       C  0.84380660  0.64076880  0.55648898    -0.14500
C3049       C  0.82853587  0.62140283  0.56911116     0.07700
C3050       C  0.80809311  0.62919611  0.58584623    -0.14500
H3051       H  0.78798414  0.66108159  0.60420328     0.11600
H3052       H  0.85212585  0.68197692  0.55240509     0.11600
H3053       H  0.85975320  0.63525309  0.54347613     0.11600
H3054       H  0.79591546  0.61469810  0.59564067     0.11600
C3055       C  0.78009826  0.52947021  0.49694319    -0.14500
C3056       C  0.78151641  0.53210831  0.52440621     0.07700
C3057       C  0.75787766  0.53391242  0.53878073    -0.14500
C3058       C  0.73351255  0.53413792  0.52596312    -0.14500
C3059       C  0.73209032  0.53217682  0.49843673     0.07700
C3060       C  0.75569171  0.52928143  0.48414330    -0.14500
H3061       H  0.79787861  0.52805240  0.48529067     0.11600
H3062       H  0.75821451  0.53618934  0.55995735     0.11600
H3063       H  0.71581497  0.53647639  0.53759380     0.11600
H3064       H  0.75539710  0.52783364  0.46289676     0.11600
C3065       C  0.88363464  0.42617914  0.55513406    -0.14500
C3066       C  0.91131433  0.42724271  0.55354085     0.07700
C3067       C  0.92382543  0.45167626  0.55640416    -0.14500
C3068       C  0.90905601  0.47462153  0.55942802    -0.14500
C3069       C  0.88150457  0.47365037  0.56020063     0.07700
C3070       C  0.86882244  0.44923664  0.55867062    -0.14500
H3071       H  0.87340889  0.40760408  0.55309484     0.11600
H3072       H  0.94501823  0.45323143  0.55528711     0.11600
H3073       H  0.91916851  0.49335354  0.56064154     0.11600
H3074       H  0.84757498  0.44814164  0.55908207     0.11600
C3075       C  0.91439591  0.57331602  0.62926454    -0.14500
C3076       C  0.91534869  0.56286228  0.60358502     0.07700
C3077       C  0.93976533  0.55630538  0.59268789    -0.14500
C3078       C  0.96266817  0.55910118  0.60743370    -0.14500
C3079       C  0.96184926  0.56911686  0.63322885     0.07700
C3080       C  0.93757728  0.57684946  0.64385416    -0.14500
H3081       H  0.89572750  0.57860984  0.63805202     0.11600
H3082       H  0.94106430  0.54809756  0.57305784     0.11600
H3083       H  0.98118246  0.55330259  0.59861796     0.11600
H3084       H  0.93645592  0.58471078  0.66362608     0.11600
C3085       C  0.96155387  0.68898838  0.89532637    -0.14500
C3086       C  0.94731968  0.70288401  0.91462532     0.07700
C3087       C  0.92864275  0.72150703  0.90680280    -0.14500
C3088       C  0.92396213  0.72587252  0.88016020    -0.14500
C3089       C  0.93758882  0.71139782  0.86085800     0.07700
C3090       C  0.95657405  0.69306152  0.86865816    -0.14500
H3091       H  0.97596506  0.67432931  0.90082581     0.11600
H3092       H  0.91739543  0.73242856  0.92125590     0.11600
H3093       H  0.90906797  0.74005540  0.87470993     0.11600
H3094       H  0.96733658  0.68168104  0.85419097     0.11600
C3095       C  0.97928840  0.77210210  0.00318867    -0.14500
C3096       C  0.99363384  0.74846131  0.00466549     0.07700
C3097       C  0.02102015  0.74966192  0.00732082    -0.14500
C3098       C  0.03388760  0.77397072  0.00756145    -0.14500
C3099       C  0.01967404  0.79757516  0.00469218     0.07700
C3100       C  0.99218330  0.79639421  0.00300491    -0.14500
H3101       H  0.95813365  0.77181827  0.00095618     0.11600
H3102       H  0.03255619  0.73179982  0.00854614     0.11600
H3103       H  0.05511942  0.77417007  0.00883187     0.11600
H3104       H  0.98068645  0.81417859  0.00073029     0.11600
C3105       C  0.88894958  0.56738472  0.18094659    -0.14500
C3106       C  0.90795007  0.58170401  0.19507338     0.07700
C3107       C  0.89965914  0.59943745  0.21450960    -0.14500
C3108       C  0.87289486  0.60353307  0.21902100    -0.14500
C3109       C  0.85389441  0.59029239  0.20387328     0.07700
C3110       C  0.86217776  0.57178215  0.18517175    -0.14500
H3111       H  0.89474614  0.55354701  0.16581850     0.11600
H3112       H  0.91384165  0.61059881  0.22579916     0.11600
H3113       H  0.86712693  0.61790985  0.23365248     0.11600
H3114       H  0.84800027  0.56118618  0.17334648     0.11600
C3115       C  0.99980004  0.50839374  0.23866237    -0.14500
C3116       C  0.99990697  0.53603545  0.23823648     0.07700
C3117       C  0.00200951  0.54968626  0.26224704    -0.14500
C3118       C  0.00240120  0.53607673  0.28617667    -0.14500
C3119       C  0.00109277  0.50848673  0.28665078     0.07700
C3120       C  0.00058295  0.49477019  0.26259281    -0.14500
H3121       H  0.99825627  0.49728241  0.22054983     0.11600
H3122       H  0.00214541  0.57098814  0.26266185     0.11600
H3123       H  0.00287208  0.54719847  0.30434435     0.11600
H3124       H  0.99943442  0.47349434  0.26226639     0.11600
C3125       C  0.96700825  0.62105034  0.05993097    -0.14500
C3126       C  0.96035102  0.64783367  0.06087831     0.07700
C3127       C  0.95563925  0.65981440  0.08527108    -0.14500
C3128       C  0.95871922  0.64527778  0.10852727    -0.14500
C3129       C  0.96572067  0.61847156  0.10748386     0.07700
C3130       C  0.96935996  0.60644450  0.08294717    -0.14500
H3131       H  0.97048428  0.61138750  0.04123830     0.11600
H3132       H  0.95048666  0.68046368  0.08634089     0.11600
H3133       H  0.95581920  0.65497478  0.12728062     0.11600
H3134       H  0.97495628  0.58592359  0.08155323     0.11600
C3135       C  0.18204260  0.66653145  0.05795737    -0.14500
C3136       C  0.19662352  0.67481771  0.07973460     0.07700
C3137       C  0.20787900  0.65596190  0.09652888    -0.14500
C3138       C  0.20367998  0.62923110  0.09229433    -0.14500
C3139       C  0.18839888  0.62086478  0.07100422     0.07700
C3140       C  0.17816017  0.63972431  0.05347012    -0.14500
H3141       H  0.17337171  0.68074516  0.04467024     0.11600
H3142       H  0.21911912  0.66190531  0.11358456     0.11600
H3143       H  0.21175279  0.61519532  0.10613053     0.11600
H3144       H  0.16630913  0.63385026  0.03681958     0.11600
C3145       C  0.25579123  0.52962508  0.98392764    -0.14500
C3146       C  0.27959703  0.52846917  0.99802006     0.07700
C3147       C  0.27842352  0.52669851  0.02556564    -0.14500
C3148       C  0.25415701  0.52694195  0.03871173    -0.14500
C3149       C  0.23039223  0.52942084  0.02471107     0.07700
C3150       C  0.23152427  0.53030436  0.99710060    -0.14500
H3151       H  0.25592627  0.53124277  0.96268813     0.11600
H3152       H  0.29631015  0.52583215  0.03703124     0.11600
H3153       H  0.25412342  0.52631271  0.06000119     0.11600
H3154       H  0.21369882  0.53228439  0.98567840     0.11600
C3155       C  0.10196419  0.57018852  0.13579427    -0.14500
C3156       C  0.10046067  0.56736943  0.10820332     0.07700
C3157       C  0.07590409  0.56985539  0.09598345    -0.14500
C3158       C  0.05321383  0.57336412  0.11103341    -0.14500
C3159       C  0.05457488  0.57503103  0.13856154     0.07700
C3160       C  0.07915635  0.57423624  0.15087527    -0.14500
H3161       H  0.12067388  0.56858271  0.14576933     0.11600
H3162       H  0.07403684  0.56788959  0.07486068     0.11600
H3163       H  0.03435813  0.57407660  0.10118787     0.11600
H3164       H  0.08056539  0.57540915  0.17209872     0.11600
C3165       C  0.84208865  0.40633508  0.96625756    -0.14500
C3166       C  0.82739830  0.42528951  0.95244193     0.07700
C3167       C  0.80754158  0.41703421  0.93532522    -0.14500
C3168       C  0.80293345  0.39026175  0.93150952    -0.14500
C3169       C  0.81840938  0.37128197  0.94441864     0.07700
C3170       C  0.83776322  0.37955747  0.96212918    -0.14500
H3171       H  0.85763263  0.41217361  0.97954138     0.11600
H3172       H  0.79590214  0.43123945  0.92454858     0.11600
H3173       H  0.78787721  0.38446666  0.91766283     0.11600
H3174       H  0.84993636  0.36537945  0.97233847     0.11600
C3175       C  0.78191379  0.51728472  0.02524971    -0.14500
C3176       C  0.78296181  0.51643738  0.99766568     0.07700
C3177       C  0.75918631  0.51710442  0.98351725    -0.14500
C3178       C  0.73495320  0.51713638  0.99663939    -0.14500
C3179       C  0.73389579  0.51696142  0.02423536     0.07700
C3180       C  0.75767541  0.51776360  0.03836932    -0.14500
H3181       H  0.79980900  0.51682728  0.03672285     0.11600
H3182       H  0.75924100  0.51639374  0.96222506     0.11600
H3183       H  0.71705590  0.51653168  0.98517589     0.11600
H3184       H  0.75760257  0.51751285  0.05967020     0.11600
C3185       C  0.87223149  0.59574526  0.95966500    -0.14500
C3186       C  0.88414933  0.57098924  0.96094820     0.07700
C3187       C  0.91134559  0.56915202  0.96523211    -0.14500
C3188       C  0.92637321  0.59168685  0.96928089    -0.14500
C3189       C  0.91433159  0.61645589  0.96964948     0.07700
C3190       C  0.88722698  0.61838899  0.96426632    -0.14500
H3191       H  0.85127421  0.59746034  0.95645076     0.11600
H3192       H  0.92086258  0.55009143  0.96611593     0.11600
H3193       H  0.94716676  0.58962036  0.97327934     0.11600
H3194       H  0.87753808  0.63735856  0.96417155     0.11600
C3195       C  0.08588945  0.32389783  0.11687208    -0.14500
C3196       C  0.06630865  0.34172899  0.10930957     0.07700
C3197       C  0.05123236  0.35429987  0.12888369    -0.14500
C3198       C  0.05637823  0.34993553  0.15550337    -0.14500
C3199       C  0.07641537  0.33261426  0.16304300     0.07700
C3200       C  0.09075735  0.31923129  0.14347594    -0.14500
H3201       H  0.09778605  0.31393162  0.10225313     0.11600
H3202       H  0.03603099  0.36824185  0.12366420     0.11600
H3203       H  0.04497036  0.36041283  0.17015652     0.11600
H3204       H  0.10641068  0.30580372  0.14870399     0.11600
C3205       C  0.03314942  0.27389988  0.01994873    -0.14500
C3206       C  0.01899879  0.29770712  0.01905808     0.07700
C3207       C  0.99151783  0.29662313  0.01702511    -0.14500
C3208       C  0.97843595  0.27235114  0.01696297    -0.14500
C3209       C  0.99248926  0.24858271  0.01939614     0.07700
C3210       C  0.02005138  0.24964686  0.02031308    -0.14500
H3211       H  0.05435613  0.27400888  0.02162913     0.11600
H3212       H  0.98006552  0.31456221  0.01621020     0.11600
H3213       H  0.95717848  0.27230249  0.01620108     0.11600
H3214       H  0.03148835  0.23177477  0.02214920     0.11600
C3215       C  0.14144853  0.45120302  0.06237195    -0.14500
C3216       C  0.12907631  0.47578990  0.06230006     0.07700
C3217       C  0.10169498  0.47719579  0.05924718    -0.14500
C3218       C  0.08687704  0.45442036  0.05546978    -0.14500
C3219       C  0.09927431  0.42982036  0.05408827     0.07700
C3220       C  0.12666022  0.42835202  0.05800296    -0.14500
H3221       H  0.16256410  0.44980201  0.06455702     0.11600
H3222       H  0.09182710  0.49609571  0.05922936     0.11600
H3223       H  0.06587727  0.45619169  0.05255530     0.11600
H3224       H  0.13670583  0.40958642  0.05720840     0.11600
C3225       C  0.11419735  0.44648020  0.81013613    -0.14500
C3226       C  0.10636576  0.46366919  0.83017921     0.07700
C3227       C  0.12561433  0.47694872  0.84495570    -0.14500
C3228       C  0.15225433  0.47207548  0.84062770    -0.14500
C3229       C  0.16007332  0.45415780  0.82117795     0.07700
C3230       C  0.14081595  0.44193362  0.80552113    -0.14500
H3231       H  0.09975748  0.43618114  0.79836579     0.11600
H3232       H  0.12008139  0.49033221  0.86058963     0.11600
H3233       H  0.16666096  0.48183917  0.85288573     0.11600
H3234       H  0.14624437  0.42802677  0.79032129     0.11600
C3235       C  0.01541901  0.53672845  0.78262251    -0.14500
C3236       C  0.01718843  0.50923396  0.78414225     0.07700
C3237       C  0.01794040  0.49461008  0.76058594    -0.14500
C3238       C  0.01821597  0.50726293  0.73611140    -0.14500
C3239       C  0.01732057  0.53482297  0.73461203     0.07700
C3240       C  0.01524914  0.54935655  0.75815089    -0.14500
H3241       H  0.01477540  0.54852535  0.80035567     0.11600
H3242       H  0.01945383  0.47336010  0.76105220     0.11600
H3243       H  0.01984867  0.49550039  0.71841549     0.11600
H3244       H  0.01461536  0.57064860  0.75775509     0.11600
C3245       C  0.93562078  0.47281087  0.87384487    -0.14500
C3246       C  0.96028321  0.47562139  0.88564969     0.07700
C3247       C  0.96185673  0.48063918  0.91277472    -0.14500
C3248       C  0.93916214  0.48345948  0.92788402    -0.14500
C3249       C  0.91438630  0.48189546  0.91603986     0.07700
C3250       C  0.91276289  0.47628120  0.88891267    -0.14500
H3251       H  0.93406873  0.46898218  0.85294538     0.11600
H3252       H  0.98080160  0.48266586  0.92225830     0.11600
H3253       H  0.94103825  0.48787492  0.94864427     0.11600
H3254       H  0.89383980  0.47492151  0.87931268     0.11600
C3255       C  0.05307410  0.40256795  0.91623896    -0.14500
C3256       C  0.04803173  0.42982182  0.91764459     0.07700
C3257       C  0.04643883  0.44189239  0.94238625    -0.14500
C3258       C  0.04869517  0.42687113  0.96524518    -0.14500
C3259       C  0.05322291  0.39963303  0.96384529     0.07700
C3260       C  0.05601476  0.38761884  0.93921587    -0.14500
H3261       H  0.05444982  0.39276754  0.89736488     0.11600
H3262       H  0.04246871  0.46276005  0.94408911     0.11600
H3263       H  0.04673555  0.43652651  0.98415976     0.11600
H3264       H  0.05951433  0.36664932  0.93777447     0.11600
loop_ 
_geom_bond_atom_site_label_1 
_geom_bond_atom_site_label_2 
_geom_bond_distance 
_geom_bond_site_symmetry_2 
_ccdc_geom_bond_type 
O1           Ni9   1.929       .  S
O1           C11   1.285       .  A
O2           Ni9   1.935       .  S
O2           C12   1.286       .  A
O3           Ni9   1.894       .  S
O3           C13   1.276   1_455  A
O4           Ni9   1.895       .  S
O4           C14   1.276       .  A
O5          Ni10   1.926       .  S
O5           C14   1.285       .  A
O6          Ni10   1.935   1_655  S
O6           C13   1.285       .  A
O7          Ni10   1.907       .  S
O7           C12   1.278       .  A
O8          Ni10   1.906       .  S
O8           C11   1.278       .  A
Ni9         Ni10   2.389       .  S
C11        C3256   1.478       .  S
C12        C3236   1.485       .  S
C13        C3246   1.469       .  S
C14        C3226   1.471       .  S
O15         Ni23   1.926       .  S
O15          C25   1.284       .  A
O16         Ni23   1.934       .  S
O16          C26   1.286       .  A
O17         Ni23   1.901       .  S
O17          C27   1.277       .  A
O18         Ni23   1.900       .  S
O18          C28   1.277   1_554  A
O19         Ni24   1.934   1_556  S
O19          C28   1.284       .  A
O20         Ni24   1.925       .  S
O20          C27   1.285       .  A
O21         Ni24   1.913       .  S
O21          C26   1.280       .  A
O22         Ni24   1.910       .  S
O22          C25   1.279       .  A
Ni23        Ni24   2.388       .  S
C25        C3219   1.479       .  S
C26        C3206   1.487       .  S
C27        C3196   1.476       .  S
C28        C3259   1.471       .  S
O29         Ni37   1.927       .  S
O29          C39   1.285       .  A
O30         Ni37   1.934       .  S
O30          C40   1.286       .  A
O31         Ni37   1.892       .  S
O31          C41   1.275       .  A
O32         Ni37   1.890       .  S
O32          C42   1.275       .  A
O33         Ni38   1.935       .  S
O33          C42   1.284       .  A
O34         Ni38   1.926       .  S
O34          C41   1.285       .  A
O35         Ni38   1.911       .  S
O35          C40   1.279       .  A
O36         Ni38   1.908       .  S
O36          C39   1.278       .  A
Ni37        Ni38   2.389       .  S
C39        C3249   1.477       .  S
C40        C3176   1.487       .  S
C41        C3166   1.471       .  S
C42        C3186   1.465       .  S
O43         Ni51   1.930       .  S
O43          C53   1.286       .  A
O44         Ni51   1.938       .  S
O44          C54   1.287       .  A
O45         Ni51   1.896       .  S
O45          C55   1.276       .  A
O46         Ni51   1.893       .  S
O46          C56   1.276       .  A
O47         Ni52   1.923       .  S
O47          C56   1.285       .  A
O48         Ni52   1.934       .  S
O48          C55   1.284       .  A
O49         Ni52   1.916       .  S
O49          C54   1.281       .  A
O50         Ni52   1.914       .  S
O50          C53   1.280       .  A
Ni51        Ni52   2.387       .  S
C53        C3156   1.485       .  S
C54        C3149   1.493       .  S
C55        C3216   1.468       .  S
C56        C3139   1.472       .  S
O57         Ni65   1.918       .  S
O57          C67   1.283       .  A
O58         Ni65   1.927       .  S
O58          C68   1.284       .  A
O59         Ni65   1.903       .  S
O59          C69   1.278       .  A
O60         Ni65   1.901   1_455  S
O60          C70   1.277       .  A
O61         Ni66   1.937   1_455  S
O61          C70   1.284       .  A
O62         Ni66   1.928       .  S
O62          C69   1.285       .  A
O63         Ni66   1.914       .  S
O63          C68   1.281       .  A
O64         Ni66   1.913       .  S
O64          C67   1.279       .  A
Ni65        Ni66   2.388       .  S
C67        C3129   1.475       .  S
C68        C3116   1.486       .  S
C69        C3106   1.477       .  S
C70        C3159   1.472       .  S
O71         Ni79   1.924       .  S
O71          C81   1.284       .  A
O72         Ni79   1.929       .  S
O72          C82   1.285   1_556  A
O73         Ni79   1.896   1_554  S
O73          C83   1.277       .  A
O74         Ni79   1.895       .  S
O74          C84   1.276       .  A
O75         Ni80   1.923       .  S
O75          C84   1.284       .  A
O76         Ni80   1.933   1_554  S
O76          C83   1.284       .  A
O77         Ni80   1.905   1_554  S
O77          C82   1.278       .  A
O78         Ni80   1.905       .  S
O78          C81   1.278       .  A
Ni79        Ni80   2.390       .  S
C81        C3189   1.474       .  S
C82        C3096   1.479       .  S
C83        C3126   1.469       .  S
C84        C3086   1.471       .  S
O85         Ni93   1.928       .  S
O85          C95   1.285       .  A
O86         Ni93   1.937       .  S
O86          C96   1.286       .  A
O87         Ni93   1.905       .  S
O87          C97   1.278       .  A
O88         Ni93   1.903       .  S
O88          C98   1.278       .  A
O89         Ni94   1.936       .  S
O89          C98   1.284       .  A
O90         Ni94   1.922       .  S
O90          C97   1.284       .  A
O91         Ni94   1.916       .  S
O91          C96   1.280       .  A
O92         Ni94   1.916       .  S
O92          C95   1.279       .  A
Ni93        Ni94   2.388       .  S
C95        C3076   1.479       .  S
C96        C3056   1.490       .  S
C97        C3049   1.474       .  S
C98        C3069   1.472       .  S
O99        Ni107   1.929       .  S
O99         C109   1.286       .  A
O100       Ni107   1.933       .  S
O100        C110   1.286       .  A
O101       Ni107   1.895       .  S
O101        C111   1.277       .  A
O102       Ni107   1.895       .  S
O102        C112   1.276       .  A
O103       Ni108   1.930       .  S
O103        C112   1.286       .  A
O104       Ni108   1.938       .  S
O104        C111   1.285       .  A
O105       Ni108   1.914       .  S
O105        C110   1.280       .  A
O106       Ni108   1.914       .  S
O106        C109   1.280       .  A
Ni107      Ni108   2.387       .  S
C109       C3066   1.485       .  S
C110       C3026   1.488       .  S
C111       C3036   1.473       .  S
C112       C3019   1.477       .  S
O113       Ni121   1.921       .  S
O113        C123   1.283       .  A
O114       Ni121   1.926       .  S
O114        C124   1.284       .  A
O115       Ni121   1.900       .  S
O115        C125   1.278       .  A
O116       Ni121   1.900   1_455  S
O116        C126   1.277       .  A
O117       Ni122   1.936   1_455  S
O117        C126   1.285       .  A
O118       Ni122   1.926       .  S
O118        C125   1.284       .  A
O119       Ni122   1.915   1_455  S
O119        C124   1.281   1_455  A
O120       Ni122   1.915       .  S
O120        C123   1.280       .  A
Ni121      Ni122   2.388       .  S
C123       C3039   1.476       .  S
C124       C3119   1.484   1_655  S
C125       C2996   1.477       .  S
C126       C3006   1.470       .  S
O127       Ni135   1.926       .  S
O127        C137   1.285       .  A
O128       Ni135   1.930       .  S
O128        C138   1.285       .  A
O129       Ni135   1.891       .  S
O129        C139   1.276       .  A
O130       Ni135   1.892       .  S
O130        C140   1.276       .  A
O131       Ni136   1.927       .  S
O131        C140   1.285       .  A
O132       Ni136   1.935       .  S
O132        C139   1.285       .  A
O133       Ni136   1.914       .  S
O133        C138   1.280       .  A
O134       Ni136   1.912       .  S
O134        C137   1.279       .  A
Ni135      Ni136   2.388       .  S
C137       C3009   1.481       .  S
C138       C2976   1.486       .  S
C139       C2986   1.470       .  S
C140       C2966   1.472       .  S
O141       Ni149   1.927       .  S
O141        C151   1.285       .  A
O142       Ni149   1.934       .  S
O142        C152   1.286       .  A
O143       Ni149   1.898       .  S
O143        C153   1.277   1_455  A
O144       Ni149   1.898       .  S
O144        C154   1.276       .  A
O145       Ni150   1.933       .  S
O145        C154   1.287       .  A
O146       Ni150   1.943   1_655  S
O146        C153   1.287       .  A
O147       Ni150   1.908       .  S
O147        C152   1.279       .  A
O148       Ni150   1.906       .  S
O148        C151   1.278       .  A
Ni149      Ni150   2.387       .  S
C151       C2956   1.476       .  S
C152       C3239   1.486       .  S
C153       C3079   1.480       .  S
C154       C2946   1.479       .  S
O155       Ni163   1.923       .  S
O155        C165   1.284       .  A
O156       Ni163   1.929       .  S
O156        C166   1.285       .  A
O157       Ni163   1.895       .  S
O157        C167   1.276       .  A
O158       Ni163   1.893       .  S
O158        C168   1.276       .  A
O159       Ni164   1.936       .  S
O159        C168   1.285       .  A
O160       Ni164   1.927       .  S
O160        C167   1.285       .  A
O161       Ni164   1.905       .  S
O161        C166   1.278       .  A
O162       Ni164   1.905       .  S
O162        C165   1.277       .  A
Ni163      Ni164   2.390       .  S
C165       C2989   1.471       .  S
C166       C2936   1.481       .  S
C167       C2926   1.472       .  S
C168       C2959   1.468       .  S
O169       Ni177   1.927       .  S
O169        C179   1.285       .  A
O170       Ni177   1.934       .  S
O170        C180   1.286       .  A
O171       Ni177   1.895       .  S
O171        C181   1.276       .  A
O172       Ni177   1.898       .  S
O172        C182   1.277       .  A
O173       Ni178   1.940       .  S
O173        C182   1.286       .  A
O174       Ni178   1.932       .  S
O174        C181   1.286       .  A
O175       Ni178   1.914       .  S
O175        C180   1.280       .  A
O176       Ni178   1.912       .  S
O176        C179   1.279       .  A
Ni177      Ni178   2.387       .  S
C179       C2916   1.484       .  S
C180       C2896   1.488       .  S
C181       C2886   1.477       .  S
C182       C2906   1.474       .  S
O183       Ni191   1.927       .  S
O183        C193   1.285       .  A
O184       Ni191   1.936       .  S
O184        C194   1.286       .  A
O185       Ni191   1.902       .  S
O185        C195   1.277       .  A
O186       Ni191   1.899       .  S
O186        C196   1.277       .  A
O187       Ni192   1.924       .  S
O187        C196   1.284       .  A
O188       Ni192   1.937       .  S
O188        C195   1.285       .  A
O189       Ni192   1.918       .  S
O189        C194   1.281       .  A
O190       Ni192   1.915       .  S
O190        C193   1.280       .  A
Ni191      Ni192   2.387       .  S
C193       C2909   1.481       .  S
C194       C3146   1.492       .  S
C195       C2876   1.473       .  S
C196       C2866   1.475       .  S
O197       Ni205   1.935       .  S
O197        C207   1.286       .  A
O198       Ni205   1.940       .  S
O198        C208   1.287       .  A
O199       Ni205   1.897       .  S
O199        C209   1.276       .  A
O200       Ni205   1.898   1_554  S
O200        C210   1.276       .  A
O201       Ni206   1.934   1_554  S
O201        C210   1.284       .  A
O202       Ni206   1.923       .  S
O202        C209   1.284       .  A
O203       Ni206   1.907   1_554  S
O203        C208   1.278   1_554  A
O204       Ni206   1.907       .  S
O204        C207   1.278       .  A
Ni205      Ni206   2.388       .  S
C207       C2879   1.483       .  S
C208       C2846   1.487   1_556  S
C209       C2836   1.471       .  S
C210       C2856   1.467       .  S
O211       Ni219   1.928       .  S
O211        C221   1.285       .  A
O212       Ni219   1.935       .  S
O212        C222   1.286       .  A
O213       Ni219   1.896       .  S
O213        C223   1.276       .  A
O214       Ni219   1.894       .  S
O214        C224   1.276       .  A
O215       Ni220   1.930       .  S
O215        C224   1.286       .  A
O216       Ni220   1.940       .  S
O216        C223   1.285       .  A
O217       Ni220   1.915       .  S
O217        C222   1.280       .  A
O218       Ni220   1.910       .  S
O218        C221   1.279       .  A
Ni219      Ni220   2.387       .  S
C221       C2859   1.482       .  S
C222       C2816   1.490       .  S
C223       C2826   1.473       .  S
C224       C2806   1.475       .  S
O225       Ni233   1.931       .  S
O225        C235   1.286       .  A
O226       Ni233   1.936       .  S
O226        C236   1.287       .  A
O227       Ni233   1.898       .  S
O227        C237   1.276   1_554  A
O228       Ni233   1.901       .  S
O228        C238   1.277       .  A
O229       Ni234   1.924       .  S
O229        C238   1.285       .  A
O230       Ni234   1.936   1_556  S
O230        C237   1.285       .  A
O231       Ni234   1.910       .  S
O231        C236   1.279       .  A
O232       Ni234   1.909       .  S
O232        C235   1.278       .  A
Ni233      Ni234   2.389       .  S
C235       C2796   1.477       .  S
C236       C2786   1.487       .  S
C237       C2919   1.468       .  S
C238       C2776   1.474       .  S
O239       Ni247   1.928       .  S
O239        C249   1.285       .  A
O240       Ni247   1.932       .  S
O240        C250   1.285       .  A
O241       Ni247   1.893       .  S
O241        C251   1.276       .  A
O242       Ni247   1.895       .  S
O242        C252   1.276       .  A
O243       Ni248   1.942       .  S
O243        C252   1.287       .  A
O244       Ni248   1.933       .  S
O244        C251   1.286       .  A
O245       Ni248   1.914       .  S
O245        C250   1.280       .  A
O246       Ni248   1.912       .  S
O246        C249   1.279       .  A
Ni247      Ni248   2.387       .  S
C249       C2829   1.480       .  S
C250       C3179   1.487       .  S
C251       C2766   1.477       .  S
C252       C2799   1.479       .  S
O253       Ni261   1.929       .  S
O253        C263   1.285       .  A
O254       Ni261   1.933       .  S
O254        C264   1.286       .  A
O255       Ni261   1.891       .  S
O255        C265   1.275       .  A
O256       Ni261   1.892       .  S
O256        C266   1.276       .  A
O257       Ni262   1.941       .  S
O257        C266   1.286       .  A
O258       Ni262   1.929       .  S
O258        C265   1.285       .  A
O259       Ni262   1.912       .  S
O259        C264   1.280       .  A
O260       Ni262   1.911       .  S
O260        C263   1.279       .  A
Ni261      Ni262   2.388       .  S
C263       C2756   1.479       .  S
C264       C2736   1.486       .  S
C265       C2726   1.472       .  S
C266       C2746   1.476       .  S
O267       Ni275   1.928       .  S
O267        C277   1.285       .  A
O268       Ni275   1.938       .  S
O268        C278   1.287       .  A
O269       Ni275   1.902       .  S
O269        C279   1.278       .  A
O270       Ni275   1.903       .  S
O270        C280   1.278       .  A
O271       Ni276   1.922       .  S
O271        C280   1.284       .  A
O272       Ni276   1.934       .  S
O272        C279   1.284       .  A
O273       Ni276   1.912       .  S
O273        C278   1.280       .  A
O274       Ni276   1.910       .  S
O274        C277   1.278       .  A
Ni275      Ni276   2.388       .  S
C277       C2749   1.475       .  S
C278       C2819   1.490       .  S
C279       C2716   1.472       .  S
C280       C2706   1.475       .  S
O281       Ni289   1.927       .  S
O281        C291   1.285       .  A
O282       Ni289   1.934       .  S
O282        C292   1.286       .  A
O283       Ni289   1.895       .  S
O283        C293   1.276       .  A
O284       Ni289   1.894       .  S
O284        C294   1.277       .  A
O285       Ni290   1.937       .  S
O285        C294   1.285       .  A
O286       Ni290   1.928       .  S
O286        C293   1.285       .  A
O287       Ni290   1.917       .  S
O287        C292   1.281       .  A
O288       Ni290   1.913       .  S
O288        C291   1.279       .  A
Ni289      Ni290   2.387       .  S
C291       C2719   1.481       .  S
C292       C3059   1.492       .  S
C293       C2689   1.474       .  S
C294       C2696   1.474       .  S
O295       Ni303   1.925       .  S
O295        C305   1.285       .  A
O296       Ni303   1.931       .  S
O296        C306   1.285       .  A
O297       Ni303   1.895       .  S
O297        C307   1.277       .  A
O298       Ni303   1.895       .  S
O298        C308   1.276       .  A
O299       Ni304   1.927       .  S
O299        C308   1.285       .  A
O300       Ni304   1.937       .  S
O300        C307   1.285       .  A
O301       Ni304   1.909       .  S
O301        C306   1.279       .  A
O302       Ni304   1.908       .  S
O302        C305   1.278       .  A
Ni303      Ni304   2.389       .  S
C305       C2699   1.473       .  S
C306       C2669   1.485       .  S
C307       C2676   1.473       .  S
C308       C2656   1.473       .  S
O309       Ni317   1.924       .  S
O309        C319   1.284       .  A
O310       Ni317   1.933       .  S
O310        C320   1.286       .  A
O311       Ni317   1.903       .  S
O311        C321   1.278       .  A
O312       Ni317   1.901       .  S
O312        C322   1.277       .  A
O313       Ni318   1.934       .  S
O313        C322   1.284       .  A
O314       Ni318   1.925       .  S
O314        C321   1.285       .  A
O315       Ni318   1.915       .  S
O315        C320   1.280       .  A
O316       Ni318   1.913       .  S
O316        C319   1.279       .  A
Ni317      Ni318   2.388       .  S
C319       C2679   1.476       .  S
C320       C2899   1.489       .  S
C321       C2636   1.477       .  S
C322       C2646   1.469       .  S
O323       Ni331   1.928       .  S
O323        C333   1.285       .  A
O324       Ni331   1.932       .  S
O324        C334   1.285       .  A
O325       Ni331   1.898       .  S
O325        C335   1.277       .  A
O326       Ni331   1.898       .  S
O326        C336   1.277       .  A
O327       Ni332   1.932       .  S
O327        C336   1.286       .  A
O328       Ni332   1.938       .  S
O328        C335   1.285       .  A
O329       Ni332   1.912       .  S
O329        C334   1.280       .  A
O330       Ni332   1.911       .  S
O330        C333   1.279       .  A
Ni331      Ni332   2.387       .  S
C333       C2649   1.482       .  S
C334       C2979   1.486       .  S
C335       C2759   1.474       .  S
C336       C2626   1.479       .  S
O337       Ni345   1.930       .  S
O337        C347   1.286       .  A
O338       Ni345   1.936       .  S
O338        C348   1.287       .  A
O339       Ni345   1.894       .  S
O339        C349   1.275       .  A
O340       Ni345   1.895       .  S
O340        C350   1.276       .  A
O341       Ni346   1.941       .  S
O341        C350   1.286       .  A
O342       Ni346   1.930       .  S
O342        C349   1.286       .  A
O343       Ni346   1.910       .  S
O343        C348   1.279       .  A
O344       Ni346   1.908       .  S
O344        C347   1.278       .  A
Ni345      Ni346   2.388       .  S
C347       C2616   1.477       .  S
C348       C2739   1.489       .  S
C349       C2596   1.473       .  S
C350       C2606   1.476       .  S
O351       Ni359   1.926       .  S
O351        C361   1.285       .  A
O352       Ni359   1.932   1_545  S
O352        C362   1.285   1_545  A
O353       Ni359   1.896       .  S
O353        C363   1.277       .  A
O354       Ni359   1.898       .  S
O354        C364   1.277       .  A
O355       Ni360   1.927       .  S
O355        C364   1.285       .  A
O356       Ni360   1.938       .  S
O356        C363   1.285       .  A
O357       Ni360   1.913       .  S
O357        C362   1.280       .  A
O358       Ni360   1.913       .  S
O358        C361   1.279       .  A
Ni359      Ni360   2.388       .  S
C361       C2609   1.477       .  S
C362       C2576   1.486   1_565  S
C363       C2586   1.474       .  S
C364       C2566   1.476       .  S
O365       Ni373   1.926       .  S
O365        C375   1.285       .  A
O366       Ni373   1.931       .  S
O366        C376   1.285       .  A
O367       Ni373   1.891       .  S
O367        C377   1.276       .  A
O368       Ni373   1.895       .  S
O368        C378   1.276       .  A
O369       Ni374   1.930       .  S
O369        C378   1.286       .  A
O370       Ni374   1.939       .  S
O370        C377   1.286       .  A
O371       Ni374   1.908       .  S
O371        C376   1.279       .  A
O372       Ni374   1.906       .  S
O372        C375   1.278       .  A
Ni373      Ni374   2.389       .  S
C375       C2556   1.472       .  S
C376       C2666   1.482       .  S
C377       C2549   1.473       .  S
C378       C2536   1.475       .  S
O379       Ni387   1.924       .  S
O379        C389   1.284       .  A
O380       Ni387   1.927   1_545  S
O380        C390   1.285       .  A
O381       Ni387   1.892       .  S
O381        C391   1.276       .  A
O382       Ni387   1.892   1_545  S
O382        C392   1.276       .  A
O383       Ni388   1.936       .  S
O383        C392   1.285       .  A
O384       Ni388   1.928   1_565  S
O384        C391   1.285       .  A
O385       Ni388   1.915       .  S
O385        C390   1.280       .  A
O386       Ni388   1.914   1_565  S
O386        C389   1.279       .  A
Ni387      Ni388   2.388   1_565  S
C389       C2589   1.477       .  S
C390       C2526   1.487       .  S
C391       C2519   1.473       .  S
C392       C2559   1.472       .  S
O393       Ni401   1.922       .  S
O393        C403   1.284       .  A
O394       Ni401   1.929       .  S
O394        C404   1.285       .  A
O395       Ni401   1.896       .  S
O395        C405   1.276       .  A
O396       Ni401   1.894       .  S
O396        C406   1.276       .  A
O397       Ni402   1.938       .  S
O397        C406   1.285       .  A
O398       Ni402   1.927       .  S
O398        C405   1.285       .  A
O399       Ni402   1.910       .  S
O399        C404   1.279       .  A
O400       Ni402   1.909       .  S
O400        C403   1.278       .  A
Ni401      Ni402   2.389       .  S
C403       C2546   1.471       .  S
C404       C2496   1.483       .  S
C405       C2486   1.473       .  S
C406       C2506   1.470       .  S
O407       Ni415   1.927       .  S
O407        C417   1.285       .  A
O408       Ni415   1.932       .  S
O408        C418   1.285       .  A
O409       Ni415   1.893       .  S
O409        C419   1.276       .  A
O410       Ni415   1.892       .  S
O410        C420   1.275       .  A
O411       Ni416   1.929       .  S
O411        C420   1.286       .  A
O412       Ni416   1.940       .  S
O412        C419   1.286       .  A
O413       Ni416   1.914       .  S
O413        C418   1.280       .  A
O414       Ni416   1.911       .  S
O414        C417   1.279       .  A
Ni415      Ni416   2.388       .  S
C417       C2509   1.479       .  S
C418       C2476   1.487       .  S
C419       C2619   1.474   1_545  S
C420       C2466   1.474       .  S
O421       Ni429   1.933       .  S
O421        C431   1.286       .  A
O422       Ni429   1.940       .  S
O422        C432   1.287       .  A
O423       Ni429   1.900       .  S
O423        C433   1.277   1_554  A
O424       Ni429   1.894       .  S
O424        C434   1.276       .  A
O425       Ni430   1.929       .  S
O425        C434   1.285       .  A
O426       Ni430   1.934   1_556  S
O426        C433   1.284       .  A
O427       Ni430   1.903       .  S
O427        C432   1.278       .  A
O428       Ni430   1.902       .  S
O428        C431   1.277       .  A
Ni429      Ni430   2.387       .  S
C431       C2456   1.482       .  S
C432       C2789   1.488       .  S
C433       C2446   1.473       .  S
C434       C2436   1.475       .  S
O435       Ni443   1.921       .  S
O435        C445   1.284       .  A
O436       Ni443   1.929       .  S
O436        C446   1.285       .  A
O437       Ni443   1.904       .  S
O437        C447   1.278       .  A
O438       Ni443   1.901       .  S
O438        C448   1.277   1_545  A
O439       Ni444   1.928       .  S
O439        C448   1.283   1_545  A
O440       Ni444   1.918       .  S
O440        C447   1.283       .  A
O441       Ni444   1.909       .  S
O441        C446   1.279       .  A
O442       Ni444   1.906       .  S
O442        C445   1.278       .  A
Ni443      Ni444   2.390       .  S
C445       C2426   1.470       .  S
C446       C2416   1.482       .  S
C447       C2406   1.472       .  S
C448       C2459   1.463       .  S
O449       Ni457   1.921       .  S
O449        C459   1.283       .  A
O450       Ni457   1.927   1_545  S
O450        C460   1.284   1_545  A
O451       Ni457   1.903       .  S
O451        C461   1.278       .  A
O452       Ni457   1.899       .  S
O452        C462   1.278       .  A
O453       Ni458   1.933       .  S
O453        C462   1.284       .  A
O454       Ni458   1.925       .  S
O454        C461   1.284       .  A
O455       Ni458   1.913       .  S
O455        C460   1.280       .  A
O456       Ni458   1.914       .  S
O456        C459   1.280       .  A
Ni457      Ni458   2.388       .  S
C459       C2449   1.477       .  S
C460       C2499   1.484   1_565  S
C461       C2386   1.477       .  S
C462       C2396   1.472       .  S
O463       Ni471   1.925       .  S
O463        C473   1.284       .  A
O464       Ni471   1.931       .  S
O464        C474   1.285       .  A
O465       Ni471   1.894       .  S
O465        C475   1.277       .  A
O466       Ni471   1.897       .  S
O466        C476   1.277       .  A
O467       Ni472   1.923       .  S
O467        C476   1.284       .  A
O468       Ni472   1.931       .  S
O468        C475   1.284       .  A
O469       Ni472   1.913       .  S
O469        C474   1.280       .  A
O470       Ni472   1.912       .  S
O470        C473   1.279       .  A
Ni471      Ni472   2.389       .  S
C473       C2376   1.476       .  S
C474       C2579   1.487       .  S
C475       C2429   1.469       .  S
C476       C2366   1.473       .  S
O477       Ni485   1.924       .  S
O477        C487   1.285       .  A
O478       Ni485   1.932       .  S
O478        C488   1.286       .  A
O479       Ni485   1.890       .  S
O479        C489   1.275       .  A
O480       Ni485   1.895   1_554  S
O480        C490   1.276       .  A
O481       Ni486   1.936   1_554  S
O481        C490   1.285       .  A
O482       Ni486   1.926       .  S
O482        C489   1.285       .  A
O483       Ni486   1.912   1_554  S
O483        C488   1.280   1_554  A
O484       Ni486   1.911       .  S
O484        C487   1.279       .  A
Ni485      Ni486   2.388       .  S
C487       C2359   1.476       .  S
C488       C2849   1.489   1_556  S
C489       C2346   1.470       .  S
C490       C2379   1.472       .  S
O491       Ni499   1.923       .  S
O491        C501   1.284       .  A
O492       Ni499   1.929   1_545  S
O492        C502   1.285       .  A
O493       Ni499   1.896   1_545  S
O493        C503   1.277       .  A
O494       Ni499   1.897       .  S
O494        C504   1.276       .  A
O495       Ni500   1.921   1_565  S
O495        C504   1.284       .  A
O496       Ni500   1.933       .  S
O496        C503   1.284       .  A
O497       Ni500   1.909       .  S
O497        C502   1.279       .  A
O498       Ni500   1.911   1_565  S
O498        C501   1.279       .  A
Ni499      Ni500   2.389   1_565  S
C501       C2399   1.475       .  S
C502       C2336   1.484       .  S
C503       C2356   1.469       .  S
C504       C2326   1.469       .  S
O505       Ni513   1.924       .  S
O505        C515   1.285       .  A
O506       Ni513   1.932       .  S
O506        C516   1.285       .  A
O507       Ni513   1.891       .  S
O507        C517   1.275       .  A
O508       Ni513   1.891       .  S
O508        C518   1.276   1_554  A
O509       Ni514   1.937   1_556  S
O509        C518   1.285       .  A
O510       Ni514   1.925       .  S
O510        C517   1.285       .  A
O511       Ni514   1.915       .  S
O511        C516   1.280       .  A
O512       Ni514   1.914       .  S
O512        C515   1.279       .  A
Ni513      Ni514   2.389       .  S
C515       C2316   1.477       .  S
C516       C3209   1.489       .  S
C517       C2296   1.469       .  S
C518       C2309   1.469       .  S
O519       Ni527   1.924       .  S
O519        C529   1.284       .  A
O520       Ni527   1.930   1_545  S
O520        C530   1.285       .  A
O521       Ni527   1.895   1_545  S
O521        C531   1.277       .  A
O522       Ni527   1.898       .  S
O522        C532   1.276       .  A
O523       Ni528   1.927   1_565  S
O523        C532   1.286       .  A
O524       Ni528   1.940       .  S
O524        C531   1.285       .  A
O525       Ni528   1.907       .  S
O525        C530   1.279       .  A
O526       Ni528   1.904   1_565  S
O526        C529   1.277       .  A
Ni527      Ni528   2.389   1_565  S
C529       C2286   1.470       .  S
C530       C2339   1.482       .  S
C531       C2319   1.474       .  S
C532       C2276   1.475       .  S
O533       Ni541   1.923       .  S
O533        C543   1.284       .  A
O534       Ni541   1.928   1_545  S
O534        C544   1.285   1_545  A
O535       Ni541   1.890       .  S
O535        C545   1.275       .  A
O536       Ni541   1.889       .  S
O536        C546   1.275   1_455  A
O537       Ni542   1.937   1_655  S
O537        C546   1.285       .  A
O538       Ni542   1.928       .  S
O538        C545   1.285       .  A
O539       Ni542   1.910       .  S
O539        C544   1.279       .  A
O540       Ni542   1.906       .  S
O540        C543   1.278       .  A
Ni541      Ni542   2.389       .  S
C543       C2266   1.472       .  S
C544       C2256   1.484   1_565  S
C545       C2249   1.471       .  S
C546       C2289   1.470       .  S
O547       Ni555   1.919       .  S
O547        C557   1.284       .  A
O548       Ni555   1.926       .  S
O548        C558   1.284   1_556  A
O549       Ni555   1.891   1_554  S
O549        C559   1.276       .  A
O550       Ni555   1.892       .  S
O550        C560   1.275       .  A
O551       Ni556   1.922       .  S
O551        C560   1.284       .  A
O552       Ni556   1.932   1_554  S
O552        C559   1.284       .  A
O553       Ni556   1.907   1_554  S
O553        C558   1.279       .  A
O554       Ni556   1.908       .  S
O554        C557   1.278       .  A
Ni555      Ni556   2.390       .  S
C557       C2236   1.469       .  S
C558       C3099   1.481       .  S
C559       C2269   1.466       .  S
C560       C2226   1.468       .  S
O561       Ni569   1.931       .  S
O561        C571   1.286       .  A
O562       Ni569   1.932       .  S
O562        C572   1.286       .  A
O563       Ni569   1.891       .  S
O563        C573   1.275       .  A
O564       Ni569   1.892       .  S
O564        C574   1.276   1_545  A
O565       Ni570   1.931       .  S
O565        C574   1.284   1_545  A
O566       Ni570   1.923       .  S
O566        C573   1.285       .  A
O567       Ni570   1.908       .  S
O567        C572   1.279       .  A
O568       Ni570   1.908       .  S
O568        C571   1.279       .  A
Ni569      Ni570   2.388       .  S
C571       C2216   1.483       .  S
C572       C2419   1.485   1_556  S
C573       C2206   1.470       .  S
C574       C2239   1.468       .  S
O575       Ni583   1.921       .  S
O575        C585   1.284       .  A
O576       Ni583   1.932       .  S
O576        C586   1.285       .  A
O577       Ni583   1.899   1_455  S
O577        C587   1.276       .  A
O578       Ni583   1.897       .  S
O578        C588   1.277       .  A
O579       Ni584   1.926       .  S
O579        C588   1.285       .  A
O580       Ni584   1.937   1_455  S
O580        C587   1.285       .  A
O581       Ni584   1.916       .  S
O581        C586   1.281       .  A
O582       Ni584   1.913       .  S
O582        C585   1.279       .  A
Ni583      Ni584   2.389       .  S
C585       C2306   1.476       .  S
C586       C2196   1.489       .  S
C587       C2219   1.470       .  S
C588       C2186   1.473       .  S
O589       Ni597   1.924       .  S
O589        C599   1.284       .  A
O590       Ni597   1.930       .  S
O590        C600   1.285       .  A
O591       Ni597   1.898       .  S
O591        C601   1.277       .  A
O592       Ni597   1.896       .  S
O592        C602   1.277   1_455  A
O593       Ni598   1.936   1_655  S
O593        C602   1.285       .  A
O594       Ni598   1.926       .  S
O594        C601   1.285       .  A
O595       Ni598   1.910       .  S
O595        C600   1.280       .  A
O596       Ni598   1.909       .  S
O596        C599   1.278       .  A
Ni597      Ni598   2.389       .  S
C599       C2179   1.473       .  S
C600       C2259   1.483       .  S
C601       C2156   1.476       .  S
C602       C2169   1.472       .  S
O603       Ni611   1.927       .  S
O603        C613   1.285       .  A
O604       Ni611   1.932       .  S
O604        C614   1.285       .  A
O605       Ni611   1.890       .  S
O605        C615   1.276   1_545  A
O606       Ni611   1.891       .  S
O606        C616   1.275       .  A
O607       Ni612   1.926       .  S
O607        C616   1.285       .  A
O608       Ni612   1.936       .  S
O608        C615   1.285   1_545  A
O609       Ni612   1.914       .  S
O609        C614   1.280       .  A
O610       Ni612   1.910       .  S
O610        C613   1.279       .  A
Ni611      Ni612   2.388       .  S
C613       C2166   1.477       .  S
C614       C2479   1.488       .  S
C615       C2149   1.471       .  S
C616       C2136   1.470       .  S
O617       Ni625   1.922       .  S
O617        C627   1.284       .  A
O618       Ni625   1.928       .  S
O618        C628   1.285       .  A
O619       Ni625   1.897       .  S
O619        C629   1.276       .  A
O620       Ni625   1.896       .  S
O620        C630   1.277       .  A
O621       Ni626   1.939       .  S
O621        C630   1.286       .  A
O622       Ni626   1.928       .  S
O622        C629   1.285       .  A
O623       Ni626   1.907       .  S
O623        C628   1.279       .  A
O624       Ni626   1.906       .  S
O624        C627   1.277       .  A
Ni625      Ni626   2.389       .  S
C627       C2146   1.469       .  S
C628       C2939   1.481       .  S
C629       C2116   1.475       .  S
C630       C2126   1.474       .  S
O631       Ni639   1.924       .  S
O631        C641   1.284       .  A
O632       Ni639   1.930       .  S
O632        C642   1.285       .  A
O633       Ni639   1.894       .  S
O633        C643   1.276       .  A
O634       Ni639   1.895       .  S
O634        C644   1.277       .  A
O635       Ni640   1.927       .  S
O635        C644   1.284       .  A
O636       Ni640   1.937       .  S
O636        C643   1.285       .  A
O637       Ni640   1.913       .  S
O637        C642   1.280       .  A
O638       Ni640   1.911       .  S
O638        C641   1.279       .  A
Ni639      Ni640   2.389       .  S
C641       C2106   1.473       .  S
C642       C3029   1.486       .  S
C643       C2176   1.472       .  S
C644       C2096   1.473       .  S
O645       Ni653   1.928       .  S
O645        C655   1.285       .  A
O646       Ni653   1.933   1_545  S
O646        C656   1.286       .  A
O647       Ni653   1.894       .  S
O647        C657   1.276       .  A
O648       Ni653   1.893   1_545  S
O648        C658   1.276       .  A
O649       Ni654   1.935       .  S
O649        C658   1.285       .  A
O650       Ni654   1.926   1_565  S
O650        C657   1.285       .  A
O651       Ni654   1.909       .  S
O651        C656   1.279       .  A
O652       Ni654   1.906   1_565  S
O652        C655   1.278       .  A
Ni653      Ni654   2.388   1_565  S
C655       C2086   1.478       .  S
C656       C2529   1.484       .  S
C657       C2076   1.473       .  S
C658       C2109   1.472       .  S
O659       Ni667   1.925       .  S
O659        C669   1.284       .  A
O660       Ni667   1.932   1_545  S
O660        C670   1.285   1_545  A
O661       Ni667   1.897   1_455  S
O661        C671   1.277       .  A
O662       Ni667   1.898       .  S
O662        C672   1.277       .  A
O663       Ni668   1.923       .  S
O663        C672   1.284       .  A
O664       Ni668   1.933   1_455  S
O664        C671   1.284       .  A
O665       Ni668   1.917       .  S
O665        C670   1.281       .  A
O666       Ni668   1.915       .  S
O666        C669   1.280       .  A
Ni667      Ni668   2.388       .  S
C669       C2129   1.478       .  S
C670       C2199   1.490   1_565  S
C671       C2089   1.467       .  S
C672       C2066   1.473       .  S
O673       Ni681   1.923       .  S
O673        C683   1.284       .  A
O674       Ni681   1.932       .  S
O674        C684   1.285       .  A
O675       Ni681   1.902       .  S
O675        C685   1.278       .  A
O676       Ni681   1.897       .  S
O676        C686   1.277       .  A
O677       Ni682   1.932       .  S
O677        C686   1.284       .  A
O678       Ni682   1.925       .  S
O678        C685   1.285       .  A
O679       Ni682   1.907       .  S
O679        C684   1.279       .  A
O680       Ni682   1.905       .  S
O680        C683   1.278       .  A
Ni681      Ni682   2.390       .  S
C683       C2056   1.469       .  S
C684       C2036   1.483       .  S
C685       C2889   1.476       .  S
C686       C2046   1.469       .  S
O687       Ni695   1.927       .  S
O687        C697   1.285       .  A
O688       Ni695   1.934       .  S
O688        C698   1.286       .  A
O689       Ni695   1.894       .  S
O689        C699   1.276       .  A
O690       Ni695   1.894       .  S
O690        C700   1.276       .  A
O691       Ni696   1.926       .  S
O691        C700   1.285       .  A
O692       Ni696   1.935       .  S
O692        C699   1.285       .  A
O693       Ni696   1.910       .  S
O693        C698   1.279       .  A
O694       Ni696   1.906       .  S
O694        C697   1.278       .  A
Ni695      Ni696   2.389       .  S
C697       C2049   1.475       .  S
C698       C2016   1.485       .  S
C699       C2026   1.471       .  S
C700       C3089   1.472       .  S
O701       Ni709   1.924       .  S
O701        C711   1.285       .  A
O702       Ni709   1.931       .  S
O702        C712   1.285       .  A
O703       Ni709   1.895       .  S
O703        C713   1.276       .  A
O704       Ni709   1.897       .  S
O704        C714   1.277       .  A
O705       Ni710   1.940       .  S
O705        C714   1.286       .  A
O706       Ni710   1.929       .  S
O706        C713   1.285       .  A
O707       Ni710   1.913       .  S
O707        C712   1.280       .  A
O708       Ni710   1.911       .  S
O708        C711   1.279       .  A
Ni709      Ni710   2.388       .  S
C711       C2006   1.478       .  S
C712       C1986   1.487       .  S
C713       C2599   1.476       .  S
C714       C1996   1.474       .  S
O715       Ni723   1.925       .  S
O715        C725   1.284       .  A
O716       Ni723   1.929       .  S
O716        C726   1.285       .  A
O717       Ni723   1.896       .  S
O717        C727   1.277       .  A
O718       Ni723   1.895       .  S
O718        C728   1.277       .  A
O719       Ni724   1.921       .  S
O719        C728   1.283       .  A
O720       Ni724   1.929       .  S
O720        C727   1.284       .  A
O721       Ni724   1.916       .  S
O721        C726   1.281       .  A
O722       Ni724   1.916       .  S
O722        C725   1.280       .  A
Ni723      Ni724   2.388       .  S
C725       C1999   1.480       .  S
C726       C1976   1.489       .  S
C727       C2059   1.469       .  S
C728       C2329   1.472       .  S
O729       Ni737   1.926       .  S
O729        C739   1.284       .  A
O730       Ni737   1.931       .  S
O730        C740   1.285       .  A
O731       Ni737   1.896       .  S
O731        C741   1.277       .  A
O732       Ni737   1.896       .  S
O732        C742   1.277       .  A
O733       Ni738   1.939       .  S
O733        C742   1.286       .  A
O734       Ni738   1.930       .  S
O734        C741   1.285       .  A
O735       Ni738   1.913       .  S
O735        C740   1.280       .  A
O736       Ni738   1.910       .  S
O736        C739   1.279       .  A
Ni737      Ni738   2.387       .  S
C739       C2029   1.476       .  S
C740       C1956   1.486       .  S
C741       C3046   1.477       .  S
C742       C1966   1.477       .  S
O743       Ni751   1.924       .  S
O743        C753   1.284       .  A
O744       Ni751   1.929       .  S
O744        C754   1.285       .  A
O745       Ni751   1.896       .  S
O745        C755   1.276       .  A
O746       Ni751   1.899       .  S
O746        C756   1.277       .  A
O747       Ni752   1.922       .  S
O747        C756   1.284       .  A
O748       Ni752   1.933       .  S
O748        C755   1.284       .  A
O749       Ni752   1.914       .  S
O749        C754   1.280       .  A
O750       Ni752   1.914       .  S
O750        C753   1.279       .  A
Ni751      Ni752   2.389       .  S
C753       C1969   1.475       .  S
C754       C1946   1.485   1_565  S
C755       C2009   1.467       .  S
C756       C2069   1.472       .  S
O757       Ni765   1.923       .  S
O757        C767   1.284       .  A
O758       Ni765   1.928       .  S
O758        C768   1.285       .  A
O759       Ni765   1.893       .  S
O759        C769   1.276       .  A
O760       Ni765   1.891       .  S
O760        C770   1.276       .  A
O761       Ni766   1.934       .  S
O761        C770   1.285       .  A
O762       Ni766   1.927       .  S
O762        C769   1.285       .  A
O763       Ni766   1.905       .  S
O763        C768   1.278       .  A
O764       Ni766   1.903       .  S
O764        C767   1.278       .  A
Ni765      Ni766   2.390       .  S
C767       C1936   1.471       .  S
C768       C1916   1.481       .  S
C769       C2079   1.471       .  S
C770       C1926   1.468       .  S
O771       Ni779   1.920       .  S
O771        C781   1.283       .  A
O772       Ni779   1.928       .  S
O772        C782   1.285       .  A
O773       Ni779   1.899       .  S
O773        C783   1.277       .  A
O774       Ni779   1.900       .  S
O774        C784   1.277       .  A
O775       Ni780   1.932       .  S
O775        C784   1.286       .  A
O776       Ni780   1.941       .  S
O776        C783   1.286       .  A
O777       Ni780   1.912       .  S
O777        C782   1.280       .  A
O778       Ni780   1.908       .  S
O778        C781   1.278       .  A
Ni779      Ni780   2.388       .  S
C781       C1929   1.470       .  S
C782       C1896   1.484       .  S
C783       C1906   1.478       .  S
C784       C2949   1.478       .  S
O785       Ni793   1.923       .  S
O785        C795   1.284       .  A
O786       Ni793   1.931       .  S
O786        C796   1.285       .  A
O787       Ni793   1.896       .  S
O787        C797   1.277       .  A
O788       Ni793   1.898       .  S
O788        C798   1.277       .  A
O789       Ni794   1.926       .  S
O789        C798   1.285       .  A
O790       Ni794   1.936       .  S
O790        C797   1.285       .  A
O791       Ni794   1.913       .  S
O791        C796   1.280       .  A
O792       Ni794   1.911       .  S
O792        C795   1.279       .  A
Ni793      Ni794   2.388       .  S
C795       C1886   1.475       .  S
C796       C1866   1.487       .  S
C797       C1876   1.472       .  S
C798       C2869   1.473       .  S
O799       Ni807   1.932       .  S
O799        C809   1.286       .  A
O800       Ni807   1.936       .  S
O800        C810   1.286       .  A
O801       Ni807   1.896       .  S
O801        C811   1.276       .  A
O802       Ni807   1.894       .  S
O802        C812   1.276       .  A
O803       Ni808   1.934       .  S
O803        C812   1.284       .  A
O804       Ni808   1.923       .  S
O804        C811   1.285       .  A
O805       Ni808   1.911       .  S
O805        C810   1.279       .  A
O806       Ni808   1.911       .  S
O806        C809   1.278       .  A
Ni807      Ni808   2.388       .  S
C809       C1909   1.480       .  S
C810       C1989   1.489       .  S
C811       C2729   1.472       .  S
C812       C1889   1.471       .  S
O813       Ni821   1.928       .  S
O813        C823   1.285       .  A
O814       Ni821   1.933       .  S
O814        C824   1.286       .  A
O815       Ni821   1.892       .  S
O815        C825   1.276       .  A
O816       Ni821   1.892       .  S
O816        C826   1.276       .  A
O817       Ni822   1.920       .  S
O817        C826   1.284       .  A
O818       Ni822   1.928       .  S
O818        C825   1.283       .  A
O819       Ni822   1.911       .  S
O819        C824   1.280       .  A
O820       Ni822   1.912       .  S
O820        C823   1.279       .  A
Ni821      Ni822   2.389       .  S
C823       C1856   1.478       .  S
C824       C2019   1.487       .  S
C825       C1939   1.464       .  S
C826       C2229   1.468       .  S
O827       Ni835   1.925       .  S
O827        C837   1.284       .  A
O828       Ni835   1.934       .  S
O828        C838   1.286       .  A
O829       Ni835   1.903       .  S
O829        C839   1.278       .  A
O830       Ni835   1.902       .  S
O830        C840   1.278       .  A
O831       Ni836   1.935       .  S
O831        C840   1.285       .  A
O832       Ni836   1.925       .  S
O832        C839   1.284       .  A
O833       Ni836   1.911       .  S
O833        C838   1.280       .  A
O834       Ni836   1.910       .  S
O834        C837   1.279       .  A
Ni835      Ni836   2.388       .  S
C837       C1879   1.476       .  S
C838       C1846   1.487       .  S
C839       C2389   1.476       .  S
C840       C1859   1.474       .  S
O841       Ni849   1.927       .  S
O841        C851   1.285       .  A
O842       Ni849   1.930       .  S
O842        C852   1.285       .  A
O843       Ni849   1.895       .  S
O843        C853   1.276       .  A
O844       Ni849   1.895       .  S
O844        C854   1.276       .  A
O845       Ni850   1.939       .  S
O845        C854   1.285       .  A
O846       Ni850   1.927       .  S
O846        C853   1.285       .  A
O847       Ni850   1.910       .  S
O847        C852   1.279       .  A
O848       Ni850   1.911       .  S
O848        C851   1.279       .  A
Ni849      Ni850   2.388       .  S
C851       C1836   1.478       .  S
C852       C1816   1.483       .  S
C853       C2929   1.474       .  S
C854       C1826   1.473       .  S
O855       Ni863   1.928       .  S
O855        C865   1.285       .  A
O856       Ni863   1.934       .  S
O856        C866   1.286       .  A
O857       Ni863   1.899       .  S
O857        C867   1.277       .  A
O858       Ni863   1.895       .  S
O858        C868   1.276       .  A
O859       Ni864   1.930       .  S
O859        C868   1.285       .  A
O860       Ni864   1.939       .  S
O860        C867   1.285       .  A
O861       Ni864   1.912       .  S
O861        C866   1.280       .  A
O862       Ni864   1.911       .  S
O862        C865   1.279       .  A
Ni863      Ni864   2.387       .  S
C865       C1806   1.483       .  S
C866       C1796   1.488       .  S
C867       C1839   1.476       .  S
C868       C2709   1.475       .  S
O869       Ni877   1.926       .  S
O869        C879   1.285       .  A
O870       Ni877   1.932       .  S
O870        C880   1.286       .  A
O871       Ni877   1.891       .  S
O871        C881   1.275       .  A
O872       Ni877   1.890       .  S
O872        C882   1.275       .  A
O873       Ni878   1.927       .  S
O873        C882   1.285       .  A
O874       Ni878   1.937       .  S
O874        C881   1.285       .  A
O875       Ni878   1.913       .  S
O875        C880   1.280       .  A
O876       Ni878   1.913       .  S
O876        C879   1.279       .  A
Ni877      Ni878   2.389       .  S
C879       C1829   1.479       .  S
C880       C1869   1.487       .  S
C881       C1786   1.468       .  S
C882       C3136   1.467       .  S
O883       Ni891   1.924       .  S
O883        C893   1.285       .  A
O884       Ni891   1.930       .  S
O884        C894   1.285       .  A
O885       Ni891   1.897       .  S
O885        C895   1.276       .  A
O886       Ni891   1.897       .  S
O886        C896   1.276       .  A
O887       Ni892   1.934       .  S
O887        C896   1.284       .  A
O888       Ni892   1.924       .  S
O888        C895   1.285       .  A
O889       Ni892   1.906       .  S
O889        C894   1.279       .  A
O890       Ni892   1.906       .  S
O890        C893   1.278       .  A
Ni891      Ni892   2.390       .  S
C893       C1776   1.474       .  S
C894       C1919   1.482       .  S
C895       C2516   1.471       .  S
C896       C1809   1.466       .  S
O897       Ni905   1.926       .  S
O897        C907   1.285       .  A
O898       Ni905   1.932       .  S
O898        C908   1.285       .  A
O899       Ni905   1.894       .  S
O899        C909   1.276       .  A
O900       Ni905   1.896       .  S
O900        C910   1.276       .  A
O901       Ni906   1.926       .  S
O901        C910   1.285       .  A
O902       Ni906   1.935       .  S
O902        C909   1.285       .  A
O903       Ni906   1.913       .  S
O903        C908   1.280       .  A
O904       Ni906   1.913       .  S
O904        C907   1.279       .  A
Ni905      Ni906   2.389       .  S
C907       C1766   1.479       .  S
C908       C1756   1.486       .  S
C909       C1779   1.469       .  S
C910       C2439   1.473       .  S
O911       Ni919   1.925       .  S
O911        C921   1.285       .  A
O912       Ni919   1.931       .  S
O912        C922   1.285       .  A
O913       Ni919   1.893       .  S
O913        C923   1.276       .  A
O914       Ni919   1.894       .  S
O914        C924   1.276       .  A
O915       Ni920   1.939       .  S
O915        C924   1.285       .  A
O916       Ni920   1.928       .  S
O916        C923   1.285       .  A
O917       Ni920   1.910       .  S
O917        C922   1.279       .  A
O918       Ni920   1.908       .  S
O918        C921   1.278       .  A
Ni919      Ni920   2.388       .  S
C921       C1789   1.476       .  S
C922       C1746   1.484       .  S
C923       C2246   1.473       .  S
C924       C1769   1.472       .  S
O925       Ni933   1.924       .  S
O925        C935   1.284       .  A
O926       Ni933   1.927       .  S
O926        C936   1.285       .  A
O927       Ni933   1.893       .  S
O927        C937   1.276       .  A
O928       Ni933   1.890       .  S
O928        C938   1.276       .  A
O929       Ni934   1.930       .  S
O929        C938   1.283       .  A
O930       Ni934   1.921       .  S
O930        C937   1.284       .  A
O931       Ni934   1.909       .  S
O931        C936   1.279       .  A
O932       Ni934   1.910       .  S
O932        C935   1.279       .  A
Ni933      Ni934   2.390       .  S
C935       C1736   1.474       .  S
C936       C1716   1.482       .  S
C937       C2349   1.469       .  S
C938       C1726   1.464       .  S
O939       Ni947   1.926       .  S
O939        C949   1.285       .  A
O940       Ni947   1.930       .  S
O940        C950   1.285       .  A
O941       Ni947   1.896       .  S
O941        C951   1.276       .  A
O942       Ni947   1.895       .  S
O942        C952   1.276       .  A
O943       Ni948   1.938       .  S
O943        C952   1.285       .  A
O944       Ni948   1.932       .  S
O944        C951   1.286       .  A
O945       Ni948   1.909       .  S
O945        C950   1.279       .  A
O946       Ni948   1.908       .  S
O946        C949   1.279       .  A
Ni947      Ni948   2.388       .  S
C949       C1706   1.478       .  S
C950       C2039   1.483       .  S
C951       C2639   1.476       .  S
C952       C1696   1.472       .  S
O953       Ni961   1.920       .  S
O953        C963   1.284       .  A
O954       Ni961   1.928       .  S
O954        C964   1.285       .  A
O955       Ni961   1.894       .  S
O955        C965   1.276       .  A
O956       Ni961   1.894       .  S
O956        C966   1.276       .  A
O957       Ni962   1.927       .  S
O957        C966   1.285       .  A
O958       Ni962   1.936       .  S
O958        C965   1.285       .  A
O959       Ni962   1.905       .  S
O959        C964   1.278       .  A
O960       Ni962   1.904       .  S
O960        C963   1.277       .  A
Ni961      Ni962   2.390       .  S
C963       C1729   1.469       .  S
C964       C1686   1.479       .  S
C965       C1709   1.468       .  S
C966       C2469   1.470       .  S
O967       Ni975   1.923       .  S
O967        C977   1.284       .  A
O968       Ni975   1.929       .  S
O968        C978   1.285       .  A
O969       Ni975   1.894       .  S
O969        C979   1.276       .  A
O970       Ni975   1.894       .  S
O970        C980   1.276       .  A
O971       Ni976   1.928       .  S
O971        C980   1.285       .  A
O972       Ni976   1.936       .  S
O972        C979   1.285       .  A
O973       Ni976   1.913       .  S
O973        C978   1.280       .  A
O974       Ni976   1.911       .  S
O974        C977   1.279       .  A
Ni975      Ni976   2.388       .  S
C977       C1676   1.478       .  S
C978       C1949   1.486       .  S
C979       C1739   1.472       .  S
C980       C2189   1.476       .  S
O981       Ni989   1.923       .  S
O981        C991   1.284       .  A
O982       Ni989   1.929       .  S
O982        C992   1.285       .  A
O983       Ni989   1.895       .  S
O983        C993   1.276       .  A
O984       Ni989   1.897       .  S
O984        C994   1.276       .  A
O985       Ni990   1.930       .  S
O985        C994   1.285       .  A
O986       Ni990   1.938       .  S
O986        C993   1.285       .  A
O987       Ni990   1.914       .  S
O987        C992   1.280       .  A
O988       Ni990   1.913       .  S
O988        C991   1.279       .  A
Ni989      Ni990   2.388       .  S
C991       C1699   1.477       .  S
C992       C1656   1.486       .  S
C993       C1666   1.471       .  S
C994       C3016   1.475       .  S
O995      Ni1003   1.925       .  S
O995       C1005   1.285       .  A
O996      Ni1003   1.930       .  S
O996       C1006   1.285       .  A
O997      Ni1003   1.894       .  S
O997       C1007   1.276       .  A
O998      Ni1003   1.894       .  S
O998       C1008   1.276       .  A
O999      Ni1004   1.935       .  S
O999       C1008   1.284       .  A
O1000     Ni1004   1.925       .  S
O1000      C1007   1.285       .  A
O1001     Ni1004   1.913       .  S
O1001      C1006   1.280       .  A
O1002     Ni1004   1.913       .  S
O1002      C1005   1.279       .  A
Ni1003    Ni1004   2.389       .  S
C1005      C1669   1.479       .  S
C1006      C1646   1.486       .  S
C1007      C3169   1.473       .  S
C1008      C1679   1.467       .  S
O1009     Ni1017   1.935       .  S
O1009      C1019   1.286       .  A
O1010     Ni1017   1.936       .  S
O1010      C1020   1.286       .  A
O1011     Ni1017   1.890       .  S
O1011      C1021   1.275       .  A
O1012     Ni1017   1.892       .  S
O1012      C1022   1.276       .  A
O1013     Ni1018   1.941       .  S
O1013      C1022   1.286       .  A
O1014     Ni1018   1.932       .  S
O1014      C1021   1.286       .  A
O1015     Ni1018   1.911       .  S
O1015      C1020   1.279       .  A
O1016     Ni1018   1.907       .  S
O1016      C1019   1.278       .  A
Ni1017    Ni1018   2.387       .  S
C1019      C1636   1.484       .  S
C1020      C1849   1.488       .  S
C1021      C2489   1.474       .  S
C1022      C1626   1.477       .  S
O1023     Ni1031   1.924       .  S
O1023      C1033   1.284       .  A
O1024     Ni1031   1.931       .  S
O1024      C1034   1.285       .  A
O1025     Ni1031   1.895       .  S
O1025      C1035   1.277       .  A
O1026     Ni1031   1.900       .  S
O1026      C1036   1.277       .  A
O1027     Ni1032   1.922       .  S
O1027      C1036   1.284       .  A
O1028     Ni1032   1.934       .  S
O1028      C1035   1.284       .  A
O1029     Ni1032   1.912       .  S
O1029      C1034   1.280       .  A
O1030     Ni1032   1.912       .  S
O1030      C1033   1.278       .  A
Ni1031    Ni1032   2.389       .  S
C1033      C1629   1.472       .  S
C1034      C1659   1.485       .  S
C1035      C1616   1.469       .  S
C1036      C2099   1.473       .  S
O1037     Ni1045   1.922       .  S
O1037      C1047   1.284       .  A
O1038     Ni1045   1.933       .  S
O1038      C1048   1.286       .  A
O1039     Ni1045   1.901       .  S
O1039      C1049   1.277       .  A
O1040     Ni1045   1.901       .  S
O1040      C1050   1.277       .  A
O1041     Ni1046   1.927       .  S
O1041      C1050   1.285       .  A
O1042     Ni1046   1.938       .  S
O1042      C1049   1.285       .  A
O1043     Ni1046   1.908       .  S
O1043      C1048   1.279       .  A
O1044     Ni1046   1.902       .  S
O1044      C1047   1.277       .  A
Ni1045    Ni1046   2.389       .  S
C1047      C1606   1.471       .  S
C1048      C1596   1.484       .  S
C1049      C1639   1.472       .  S
C1050      C2629   1.474       .  S
O1051     Ni1059   1.922       .  S
O1051      C1061   1.284       .  A
O1052     Ni1059   1.926       .  S
O1052      C1062   1.284       .  A
O1053     Ni1059   1.894       .  S
O1053      C1063   1.277       .  A
O1054     Ni1059   1.891       .  S
O1054      C1064   1.276       .  A
O1055     Ni1060   1.930       .  S
O1055      C1064   1.284       .  A
O1056     Ni1060   1.923       .  S
O1056      C1063   1.284       .  A
O1057     Ni1060   1.910       .  S
O1057      C1062   1.280       .  A
O1058     Ni1060   1.911       .  S
O1058      C1061   1.279       .  A
Ni1059    Ni1060   2.390       .  S
C1061      C1589   1.475       .  S
C1062      C1719   1.482       .  S
C1063      C2839   1.472       .  S
C1064      C1609   1.464       .  S
O1065     Ni1073   1.923       .  S
O1065      C1075   1.284       .  A
O1066     Ni1073   1.928       .  S
O1066      C1076   1.285       .  A
O1067     Ni1073   1.895       .  S
O1067      C1077   1.276       .  A
O1068     Ni1073   1.895       .  S
O1068      C1078   1.276       .  A
O1069     Ni1074   1.925       .  S
O1069      C1078   1.284       .  A
O1070     Ni1074   1.935       .  S
O1070      C1077   1.285       .  A
O1071     Ni1074   1.910       .  S
O1071      C1076   1.280       .  A
O1072     Ni1074   1.910       .  S
O1072      C1075   1.279       .  A
Ni1073    Ni1074   2.389       .  S
C1075      C1576   1.473       .  S
C1076      C1899   1.484       .  S
C1077      C1586   1.470       .  S
C1078      C3229   1.473       .  S
O1079     Ni1087   1.924       .  S
O1079      C1089   1.284       .  A
O1080     Ni1087   1.930       .  S
O1080      C1090   1.285       .  A
O1081     Ni1087   1.890       .  S
O1081      C1091   1.275       .  A
O1082     Ni1087   1.892       .  S
O1082      C1092   1.276       .  A
O1083     Ni1088   1.935       .  S
O1083      C1092   1.285       .  A
O1084     Ni1088   1.925       .  S
O1084      C1091   1.284       .  A
O1085     Ni1088   1.913       .  S
O1085      C1090   1.280       .  A
O1086     Ni1088   1.912       .  S
O1086      C1089   1.279       .  A
Ni1087    Ni1088   2.389       .  S
C1089      C1619   1.477       .  S
C1090      C1566   1.487       .  S
C1091      C2209   1.468       .  S
C1092      C1579   1.470       .  S
O1093     Ni1101   1.924       .  S
O1093      C1103   1.284       .  A
O1094     Ni1101   1.930       .  S
O1094      C1104   1.285       .  A
O1095     Ni1101   1.898       .  S
O1095      C1105   1.278       .  A
O1096     Ni1101   1.898       .  S
O1096      C1106   1.276       .  A
O1097     Ni1102   1.933       .  S
O1097      C1106   1.284       .  A
O1098     Ni1102   1.924       .  S
O1098      C1105   1.284       .  A
O1099     Ni1102   1.914       .  S
O1099      C1104   1.280       .  A
O1100     Ni1102   1.913       .  S
O1100      C1103   1.279       .  A
Ni1101    Ni1102   2.389       .  S
C1103      C1556   1.477       .  S
C1104      C1569   1.486       .  S
C1105      C2409   1.475       .  S
C1106      C1546   1.468       .  S
O1107     Ni1115   1.928       .  S
O1107      C1117   1.285       .  A
O1108     Ni1115   1.934       .  S
O1108      C1118   1.286       .  A
O1109     Ni1115   1.894       .  S
O1109      C1119   1.276       .  A
O1110     Ni1115   1.892       .  S
O1110      C1120   1.276       .  A
O1111     Ni1116   1.931       .  S
O1111      C1120   1.285       .  A
O1112     Ni1116   1.939       .  S
O1112      C1119   1.286       .  A
O1113     Ni1116   1.913       .  S
O1113      C1118   1.280       .  A
O1114     Ni1116   1.907       .  S
O1114      C1117   1.278       .  A
Ni1115    Ni1116   2.387       .  S
C1117      C1549   1.479       .  S
C1118      C1799   1.489       .  S
C1119      C1536   1.476       .  S
C1120      C2809   1.474       .  S
O1121     Ni1129   1.923       .  S
O1121      C1131   1.284       .  A
O1122     Ni1129   1.930       .  S
O1122      C1132   1.285       .  A
O1123     Ni1129   1.896       .  S
O1123      C1133   1.276       .  A
O1124     Ni1129   1.894       .  S
O1124      C1134   1.276       .  A
O1125     Ni1130   1.937       .  S
O1125      C1134   1.285       .  A
O1126     Ni1130   1.927       .  S
O1126      C1133   1.285       .  A
O1127     Ni1130   1.911       .  S
O1127      C1132   1.280       .  A
O1128     Ni1130   1.911       .  S
O1128      C1131   1.278       .  A
Ni1129    Ni1130   2.389       .  S
C1131      C1526   1.474       .  S
C1132      C1749   1.485       .  S
C1133      C2159   1.472       .  S
C1134      C1516   1.471       .  S
O1135     Ni1143   1.925       .  S
O1135      C1145   1.285       .  A
O1136     Ni1143   1.933       .  S
O1136      C1146   1.286       .  A
O1137     Ni1143   1.897       .  S
O1137      C1147   1.277       .  A
O1138     Ni1143   1.897       .  S
O1138      C1148   1.276       .  A
O1139     Ni1144   1.928       .  S
O1139      C1148   1.285       .  A
O1140     Ni1144   1.936       .  S
O1140      C1147   1.285       .  A
O1141     Ni1144   1.909       .  S
O1141      C1146   1.279       .  A
O1142     Ni1144   1.909       .  S
O1142      C1145   1.278       .  A
Ni1143    Ni1144   2.388       .  S
C1145      C1519   1.477       .  S
C1146      C1506   1.486       .  S
C1147      C1559   1.473       .  S
C1148      C2539   1.476       .  S
O1149     Ni1157   1.924       .  S
O1149      C1159   1.284       .  A
O1150     Ni1157   1.931       .  S
O1150      C1160   1.285       .  A
O1151     Ni1157   1.901       .  S
O1151      C1161   1.277       .  A
O1152     Ni1157   1.898       .  S
O1152      C1162   1.277       .  A
O1153     Ni1158   1.936       .  S
O1153      C1162   1.285       .  A
O1154     Ni1158   1.927       .  S
O1154      C1161   1.285       .  A
O1155     Ni1158   1.909       .  S
O1155      C1160   1.279       .  A
O1156     Ni1158   1.911       .  S
O1156      C1159   1.278       .  A
Ni1157    Ni1158   2.389       .  S
C1159      C1539   1.472       .  S
C1160      C1489   1.484       .  S
C1161      C3199   1.476       .  S
C1162      C1496   1.470       .  S
O1163     Ni1171   1.929       .  S
O1163      C1173   1.286       .  A
O1164     Ni1171   1.933       .  S
O1164      C1174   1.286       .  A
O1165     Ni1171   1.891       .  S
O1165      C1175   1.276       .  A
O1166     Ni1171   1.891       .  S
O1166      C1176   1.275       .  A
O1167     Ni1172   1.931       .  S
O1167      C1176   1.286       .  A
O1168     Ni1172   1.939       .  S
O1168      C1175   1.286       .  A
O1169     Ni1172   1.911       .  S
O1169      C1174   1.279       .  A
O1170     Ni1172   1.909       .  S
O1170      C1173   1.278       .  A
Ni1171    Ni1172   2.387       .  S
C1173      C1499   1.481       .  S
C1174      C1599   1.487       .  S
C1175      C1529   1.473       .  S
C1176      C2969   1.474       .  S
O1177     Ni1185   1.922       .  S
O1177      C1187   1.284       .  A
O1178     Ni1185   1.930       .  S
O1178      C1188   1.285       .  A
O1179     Ni1185   1.903       .  S
O1179      C1189   1.277       .  A
O1180     Ni1185   1.898       .  S
O1180      C1190   1.277       .  A
O1181     Ni1186   1.932       .  S
O1181      C1190   1.284       .  A
O1182     Ni1186   1.923       .  S
O1182      C1189   1.284       .  A
O1183     Ni1186   1.912       .  S
O1183      C1188   1.280       .  A
O1184     Ni1186   1.911       .  S
O1184      C1187   1.279       .  A
Ni1185    Ni1186   2.389       .  S
C1187      C1476   1.472       .  S
C1188      C1649   1.486       .  S
C1189      C2769   1.474       .  S
C1190      C1466   1.466       .  S
O1191     Ni1199   1.926       .  S
O1191      C1201   1.285       .  A
O1192     Ni1199   1.930       .  S
O1192      C1202   1.285       .  A
O1193     Ni1199   1.891       .  S
O1193      C1203   1.276       .  A
O1194     Ni1199   1.892       .  S
O1194      C1204   1.275       .  A
O1195     Ni1200   1.929       .  S
O1195      C1204   1.285       .  A
O1196     Ni1200   1.939       .  S
O1196      C1203   1.286       .  A
O1197     Ni1200   1.911       .  S
O1197      C1202   1.279       .  A
O1198     Ni1200   1.908       .  S
O1198      C1201   1.278       .  A
Ni1199    Ni1200   2.388       .  S
C1201      C1456   1.477       .  S
C1202      C1509   1.484       .  S
C1203      C1479   1.474       .  S
C1204      C2659   1.473       .  S
O1205     Ni1213   1.927       .  S
O1205      C1215   1.285       .  A
O1206     Ni1213   1.934       .  S
O1206      C1216   1.286       .  A
O1207     Ni1213   1.896       .  S
O1207      C1217   1.276       .  A
O1208     Ni1213   1.895       .  S
O1208      C1218   1.276       .  A
O1209     Ni1214   1.927       .  S
O1209      C1218   1.285       .  A
O1210     Ni1214   1.933       .  S
O1210      C1217   1.284       .  A
O1211     Ni1214   1.906       .  S
O1211      C1216   1.278       .  A
O1212     Ni1214   1.906       .  S
O1212      C1215   1.278       .  A
Ni1213    Ni1214   2.389       .  S
C1215      C1469   1.479       .  S
C1216      C1436   1.484       .  S
C1217      C1446   1.468       .  S
C1218      C2369   1.472       .  S
O1219     Ni1227   1.925       .  S
O1219      C1229   1.285       .  A
O1220     Ni1227   1.927       .  S
O1220      C1230   1.285       .  A
O1221     Ni1227   1.887       .  S
O1221      C1231   1.275       .  A
O1222     Ni1227   1.886       .  S
O1222      C1232   1.275       .  A
O1223     Ni1228   1.934       .  S
O1223      C1232   1.285       .  A
O1224     Ni1228   1.927       .  S
O1224      C1231   1.285       .  A
O1225     Ni1228   1.911       .  S
O1225      C1230   1.280       .  A
O1226     Ni1228   1.909       .  S
O1226      C1229   1.279       .  A
Ni1227    Ni1228   2.389       .  S
C1229      C1449   1.478       .  S
C1230      C1486   1.482       .  S
C1231      C2299   1.470       .  S
C1232      C1426   1.467       .  S
O1233     Ni1241   1.919       .  S
O1233      C1243   1.284       .  A
O1234     Ni1241   1.925       .  S
O1234      C1244   1.284       .  A
O1235     Ni1241   1.890       .  S
O1235      C1245   1.276       .  A
O1236     Ni1241   1.891       .  S
O1236      C1246   1.276       .  A
O1237     Ni1242   1.926       .  S
O1237      C1246   1.285       .  A
O1238     Ni1242   1.935       .  S
O1238      C1245   1.285       .  A
O1239     Ni1242   1.907       .  S
O1239      C1244   1.279       .  A
O1240     Ni1242   1.904       .  S
O1240      C1243   1.277       .  A
Ni1241    Ni1242   2.390       .  S
C1243      C1429   1.466       .  S
C1244      C1689   1.481       .  S
C1245      C1416   1.469       .  S
C1246      C2139   1.472       .  S
O1247     Ni1255   1.925       .  S
O1247      C1257   1.284       .  A
O1248     Ni1255   1.933       .  S
O1248      C1258   1.286       .  A
O1249     Ni1255   1.900       .  S
O1249      C1259   1.277       .  A
O1250     Ni1255   1.898       .  S
O1250      C1260   1.277       .  A
O1251     Ni1256   1.934       .  S
O1251      C1260   1.284       .  A
O1252     Ni1256   1.925       .  S
O1252      C1259   1.285       .  A
O1253     Ni1256   1.905       .  S
O1253      C1258   1.278       .  A
O1254     Ni1256   1.904       .  S
O1254      C1257   1.278       .  A
Ni1255    Ni1256   2.389       .  S
C1257      C1419   1.472       .  S
C1258      C1406   1.485       .  S
C1259      C2999   1.472       .  S
C1260      C1459   1.469       .  S
O1261     Ni1269   1.927       .  S
O1261      C1271   1.285       .  A
O1262     Ni1269   1.931       .  S
O1262      C1272   1.285       .  A
O1263     Ni1269   1.890       .  S
O1263      C1273   1.275       .  A
O1264     Ni1269   1.891       .  S
O1264      C1274   1.276       .  A
O1265     Ni1270   1.935       .  S
O1265      C1274   1.286       .  A
O1266     Ni1270   1.944       .  S
O1266      C1273   1.287       .  A
O1267     Ni1270   1.915       .  S
O1267      C1272   1.280       .  A
O1268     Ni1270   1.910       .  S
O1268      C1271   1.279       .  A
Ni1269    Ni1270   2.387       .  S
C1271      C1396   1.478       .  S
C1272      C1979   1.484       .  S
C1273      C1386   1.478       .  S
C1274      C2279   1.476       .  S
O1275     Ni1283   1.929       .  S
O1275      C1285   1.285       .  A
O1276     Ni1283   1.932       .  S
O1276      C1286   1.286       .  A
O1277     Ni1283   1.892       .  S
O1277      C1287   1.276       .  A
O1278     Ni1283   1.898       .  S
O1278      C1288   1.277       .  A
O1279     Ni1284   1.926       .  S
O1279      C1288   1.285       .  A
O1280     Ni1284   1.932       .  S
O1280      C1287   1.284       .  A
O1281     Ni1284   1.908       .  S
O1281      C1286   1.279       .  A
O1282     Ni1284   1.908       .  S
O1282      C1285   1.278       .  A
Ni1283    Ni1284   2.389       .  S
C1285      C1376   1.476       .  S
C1286      C1439   1.484       .  S
C1287      C1366   1.466       .  S
C1288      C2569   1.474       .  S
O1289     Ni1297   1.929       .  S
O1289      C1299   1.285       .  A
O1290     Ni1297   1.937       .  S
O1290      C1300   1.285       .  A
O1291     Ni1297   1.906       .  S
O1291      C1301   1.278       .  A
O1292     Ni1297   1.907       .  S
O1292      C1302   1.279       .  A
O1293     Ni1298   1.930       .  S
O1293      C1302   1.285       .  A
O1294     Ni1298   1.922       .  S
O1294      C1301   1.284       .  A
O1295     Ni1298   1.896       .  S
O1295      C1300   1.276       .  A
O1296     Ni1298   1.895       .  S
O1296      C1299   1.276       .  A
Ni1297    Ni1298   2.389       .  S
C1299      C2119   1.475       .  S
C1300      C1399   1.471       .  S
C1301      C1369   1.473       .  S
C1302      C1819   1.484       .  S
O1303     Ni1311   1.928       .  S
O1303      C1313   1.285       .  A
O1304     Ni1311   1.933       .  S
O1304      C1314   1.286       .  A
O1305     Ni1311   1.899       .  S
O1305      C1315   1.277       .  A
O1306     Ni1311   1.896       .  S
O1306      C1316   1.276       .  A
O1307     Ni1312   1.939       .  S
O1307      C1316   1.285       .  A
O1308     Ni1312   1.929       .  S
O1308      C1315   1.285       .  A
O1309     Ni1312   1.907       .  S
O1309      C1314   1.279       .  A
O1310     Ni1312   1.908       .  S
O1310      C1313   1.278       .  A
Ni1311    Ni1312   2.389       .  S
C1313      C1389   1.473       .  S
C1314      C1409   1.483       .  S
C1315      C3109   1.477       .  S
C1316      C1356   1.472       .  S
O1317     Ni1325   1.928       .  S
O1317      C1327   1.285       .  A
O1318     Ni1325   1.936       .  S
O1318      C1328   1.286       .  A
O1319     Ni1325   1.896       .  S
O1319      C1329   1.277       .  A
O1320     Ni1325   1.897       .  S
O1320      C1330   1.277       .  A
O1321     Ni1326   1.937       .  S
O1321      C1330   1.286       .  A
O1322     Ni1326   1.928       .  S
O1322      C1329   1.285       .  A
O1323     Ni1326   1.909       .  S
O1323      C1328   1.279       .  A
O1324     Ni1326   1.907       .  S
O1324      C1327   1.278       .  A
Ni1325    Ni1326   2.388       .  S
C1327      C1346   1.476       .  S
C1328      C1959   1.486       .  S
C1329      C2686   1.475       .  S
C1330      C1379   1.474       .  S
O1331     Ni1339   1.933       .  S
O1331      C1341   1.286       .  A
O1332     Ni1339   1.941       .  S
O1332      C1342   1.286       .  A
O1333     Ni1339   1.916       .  S
O1333      C1343   1.281       .  A
O1334     Ni1339   1.913       .  S
O1334      C1344   1.279       .  A
O1335     Ni1340   1.925       .  S
O1335      C1344   1.285       .  A
O1336     Ni1340   1.930       .  S
O1336      C1343   1.285       .  A
O1337     Ni1340   1.893       .  S
O1337      C1342   1.276       .  A
O1338     Ni1340   1.891       .  S
O1338      C1341   1.276       .  A
Ni1339    Ni1340   2.387       .  S
C1341      C2779   1.476       .  S
C1342      C1349   1.474       .  S
C1343      C1759   1.488       .  S
C1344      C1359   1.479       .  S
C1345      C1346   1.410       .  A
C1345      C1350   1.404       .  A
C1345      H1351   1.083       .  S
C1346      C1347   1.399       .  A
C1347      C1348   1.394       .  A
C1347      H1352   1.083       .  S
C1348      C1349   1.407       .  A
C1348      H1353   1.084       .  S
C1349      C1350   1.401       .  A
C1350      H1354   1.083       .  S
C1355      C1356   1.402       .  A
C1355      C1360   1.405       .  A
C1355      H1361   1.083       .  S
C1356      C1357   1.404       .  A
C1357      C1358   1.393       .  A
C1357      H1362   1.084       .  S
C1358      C1359   1.401       .  A
C1358      H1363   1.083       .  S
C1359      C1360   1.411       .  A
C1360      H1364   1.083       .  S
C1365      C1366   1.404       .  A
C1365      C1370   1.391       .  A
C1365      H1371   1.084       .  S
C1366      C1367   1.400       .  A
C1367      C1368   1.402       .  A
C1367      H1372   1.083       .  S
C1368      C1369   1.410       .  A
C1368      H1373   1.083       .  S
C1369      C1370   1.400       .  A
C1370      H1374   1.083       .  S
C1375      C1376   1.409       .  A
C1375      C1380   1.402       .  A
C1375      H1381   1.083       .  S
C1376      C1377   1.401       .  A
C1377      C1378   1.396       .  A
C1377      H1382   1.084       .  S
C1378      C1379   1.407       .  A
C1378      H1383   1.084       .  S
C1379      C1380   1.401       .  A
C1380      H1384   1.083       .  S
C1385      C1386   1.403       .  A
C1385      C1390   1.405       .  A
C1385      H1391   1.083       .  S
C1386      C1387   1.409       .  A
C1387      C1388   1.393       .  A
C1387      H1392   1.083       .  S
C1388      C1389   1.398       .  A
C1388      H1393   1.084       .  S
C1389      C1390   1.409       .  A
C1390      H1394   1.083       .  S
C1395      C1396   1.401       .  A
C1395      C1400   1.395       .  A
C1395      H1401   1.083       .  S
C1396      C1397   1.410       .  A
C1397      C1398   1.402       .  A
C1397      H1402   1.083       .  S
C1398      C1399   1.400       .  A
C1398      H1403   1.083       .  S
C1399      C1400   1.405       .  A
C1400      H1404   1.084       .  S
C1405      C1406   1.403       .  A
C1405      C1410   1.399       .  A
C1405      H1411   1.083       .  S
C1406      C1407   1.410       .  A
C1407      C1408   1.400       .  A
C1407      H1412   1.083       .  S
C1408      C1409   1.403       .  A
C1408      H1413   1.083       .  S
C1409      C1410   1.409       .  A
C1410      H1414   1.083       .  S
C1415      C1416   1.400       .  A
C1415      C1420   1.401       .  A
C1415      H1421   1.083       .  S
C1416      C1417   1.406       .  A
C1417      C1418   1.392       .  A
C1417      H1422   1.084       .  S
C1418      C1419   1.399       .  A
C1418      H1423   1.083       .  S
C1419      C1420   1.409       .  A
C1420      H1424   1.083       .  S
C1425      C1426   1.405       .  A
C1425      C1430   1.388       .  A
C1425      H1431   1.084       .  S
C1426      C1427   1.401       .  A
C1427      C1428   1.402       .  A
C1427      H1432   1.083       .  S
C1428      C1429   1.408       .  A
C1428      H1433   1.083       .  S
C1429      C1430   1.397       .  A
C1430      H1434   1.084       .  S
C1435      C1436   1.409       .  A
C1435      C1440   1.399       .  A
C1435      H1441   1.083       .  S
C1436      C1437   1.403       .  A
C1437      C1438   1.400       .  A
C1437      H1442   1.083       .  S
C1438      C1439   1.409   1_545  A
C1438      H1443   1.083       .  S
C1439      C1440   1.403   1_565  A
C1440      H1444   1.083   1_545  S
C1445      C1446   1.400       .  A
C1445      C1450   1.401       .  A
C1445      H1451   1.083       .  S
C1446      C1447   1.404       .  A
C1447      C1448   1.394       .  A
C1447      H1452   1.084       .  S
C1448      C1449   1.402       .  A
C1448      H1453   1.083       .  S
C1449      C1450   1.410       .  A
C1450      H1454   1.083       .  S
C1455      C1456   1.410       .  A
C1455      C1460   1.402       .  A
C1455      H1461   1.083       .  S
C1456      C1457   1.401       .  A
C1457      C1458   1.394       .  A
C1457      H1462   1.083       .  S
C1458      C1459   1.404       .  A
C1458      H1463   1.084       .  S
C1459      C1460   1.400       .  A
C1460      H1464   1.083       .  S
C1465      C1466   1.399       .  A
C1465      C1470   1.401       .  A
C1465      H1471   1.083       .  S
C1466      C1467   1.404       .  A
C1467      C1468   1.395       .  A
C1467      H1472   1.084       .  S
C1468      C1469   1.402       .  A
C1468      H1473   1.083       .  S
C1469      C1470   1.411       .  A
C1470      H1474   1.083       .  S
C1475      C1476   1.399       .  A
C1475      C1480   1.392       .  A
C1475      H1481   1.084       .  S
C1476      C1477   1.408       .  A
C1477      C1478   1.404       .  A
C1477      H1482   1.083       .  S
C1478      C1479   1.402       .  A
C1478      H1483   1.083       .  S
C1479      C1480   1.407       .  A
C1480      H1484   1.084       .  S
C1485      C1486   1.408   1_455  A
C1485      C1490   1.401       .  A
C1485      H1491   1.083       .  S
C1486      C1487   1.403       .  A
C1487      C1488   1.398   1_655  A
C1487      H1492   1.083       .  S
C1488      C1489   1.409       .  A
C1488      H1493   1.083       .  S
C1489      C1490   1.404       .  A
C1490      H1494   1.083       .  S
C1495      C1496   1.404       .  A
C1495      C1500   1.395       .  A
C1495      H1501   1.084       .  S
C1496      C1497   1.400       .  A
C1497      C1498   1.403       .  A
C1497      H1502   1.083       .  S
C1498      C1499   1.411       .  A
C1498      H1503   1.083       .  S
C1499      C1500   1.402       .  A
C1500      H1504   1.083       .  S
C1505      C1506   1.409       .  A
C1505      C1510   1.398       .  A
C1505      H1511   1.083       .  S
C1506      C1507   1.405       .  A
C1507      C1508   1.402       .  A
C1507      H1512   1.083       .  S
C1508      C1509   1.409       .  A
C1508      H1513   1.083       .  S
C1509      C1510   1.402       .  A
C1510      H1514   1.083       .  S
C1515      C1516   1.401       .  A
C1515      C1520   1.404       .  A
C1515      H1521   1.083       .  S
C1516      C1517   1.404       .  A
C1517      C1518   1.392       .  A
C1517      H1522   1.084       .  S
C1518      C1519   1.400       .  A
C1518      H1523   1.083       .  S
C1519      C1520   1.411       .  A
C1520      H1524   1.083       .  S
C1525      C1526   1.399       .  A
C1525      C1530   1.391       .  A
C1525      H1531   1.083       .  S
C1526      C1527   1.409       .  A
C1527      C1528   1.404       .  A
C1527      H1532   1.083       .  S
C1528      C1529   1.402       .  A
C1528      H1533   1.083       .  S
C1529      C1530   1.406       .  A
C1530      H1534   1.084       .  S
C1535      C1536   1.403       .  A
C1535      C1540   1.404       .  A
C1535      H1541   1.083       .  S
C1536      C1537   1.407       .  A
C1537      C1538   1.392       .  A
C1537      H1542   1.083       .  S
C1538      C1539   1.399       .  A
C1538      H1543   1.084       .  S
C1539      C1540   1.408       .  A
C1540      H1544   1.083       .  S
C1545      C1546   1.404       .  A
C1545      C1550   1.395       .  A
C1545      H1551   1.084       .  S
C1546      C1547   1.399       .  A
C1547      C1548   1.401       .  A
C1547      H1552   1.083       .  S
C1548      C1549   1.411       .  A
C1548      H1553   1.083       .  S
C1549      C1550   1.402       .  A
C1550      H1554   1.083       .  S
C1555      C1556   1.401       .  A
C1555      C1560   1.394       .  A
C1555      H1561   1.083       .  S
C1556      C1557   1.409       .  A
C1557      C1558   1.403       .  A
C1557      H1562   1.083       .  S
C1558      C1559   1.401       .  A
C1558      H1563   1.083       .  S
C1559      C1560   1.405       .  A
C1560      H1564   1.084       .  S
C1565      C1566   1.409   1_554  A
C1565      C1570   1.401       .  A
C1565      H1571   1.083       .  S
C1566      C1567   1.404       .  A
C1567      C1568   1.401   1_556  A
C1567      H1572   1.083       .  S
C1568      C1569   1.409       .  A
C1568      H1573   1.083       .  S
C1569      C1570   1.404       .  A
C1570      H1574   1.083       .  S
C1575      C1576   1.409       .  A
C1575      C1580   1.403       .  A
C1575      H1581   1.083       .  S
C1576      C1577   1.400       .  A
C1577      C1578   1.392       .  A
C1577      H1582   1.083       .  S
C1578      C1579   1.405       .  A
C1578      H1583   1.084       .  S
C1579      C1580   1.401       .  A
C1580      H1584   1.083       .  S
C1585      C1586   1.401       .  A
C1585      C1590   1.403       .  A
C1585      H1591   1.083       .  S
C1586      C1587   1.405       .  A
C1587      C1588   1.393       .  A
C1587      H1592   1.084       .  S
C1588      C1589   1.401       .  A
C1588      H1593   1.084       .  S
C1589      C1590   1.409       .  A
C1590      H1594   1.083       .  S
C1595      C1596   1.402       .  A
C1595      C1600   1.401       .  A
C1595      H1601   1.083       .  S
C1596      C1597   1.409       .  A
C1597      C1598   1.400       .  A
C1597      H1602   1.083       .  S
C1598      C1599   1.404       .  A
C1598      H1603   1.083       .  S
C1599      C1600   1.410       .  A
C1600      H1604   1.083       .  S
C1605      C1606   1.409       .  A
C1605      C1610   1.400       .  A
C1605      H1611   1.083       .  S
C1606      C1607   1.400       .  A
C1607      C1608   1.391       .  A
C1607      H1612   1.083       .  S
C1608      C1609   1.404       .  A
C1608      H1613   1.084       .  S
C1609      C1610   1.399       .  A
C1610      H1614   1.083       .  S
C1615      C1616   1.404       .  A
C1615      C1620   1.392       .  A
C1615      H1621   1.084       .  S
C1616      C1617   1.401       .  A
C1617      C1618   1.404       .  A
C1617      H1622   1.083       .  S
C1618      C1619   1.411       .  A
C1618      H1623   1.083       .  S
C1619      C1620   1.401       .  A
C1620      H1624   1.083       .  S
C1625      C1626   1.403       .  A
C1625      C1630   1.405       .  A
C1625      H1631   1.083       .  S
C1626      C1627   1.408       .  A
C1627      C1628   1.392       .  A
C1627      H1632   1.083       .  S
C1628      C1629   1.398       .  A
C1628      H1633   1.084       .  S
C1629      C1630   1.408       .  A
C1630      H1634   1.083       .  S
C1635      C1636   1.412       .  A
C1635      C1640   1.402       .  A
C1635      H1641   1.083       .  S
C1636      C1637   1.403       .  A
C1637      C1638   1.398       .  A
C1637      H1642   1.083       .  S
C1638      C1639   1.406       .  A
C1638      H1643   1.084       .  S
C1639      C1640   1.399       .  A
C1640      H1644   1.083       .  S
C1645      C1646   1.404       .  A
C1645      C1650   1.400   1_556  A
C1645      H1651   1.083       .  S
C1646      C1647   1.409   1_556  A
C1647      C1648   1.400       .  A
C1647      H1652   1.083       .  S
C1648      C1649   1.404       .  A
C1648      H1653   1.083       .  S
C1649      C1650   1.409       .  A
C1650      H1654   1.083       .  S
C1655      C1656   1.409   1_455  A
C1655      C1660   1.401       .  A
C1655      H1661   1.083       .  S
C1656      C1657   1.404       .  A
C1657      C1658   1.399   1_655  A
C1657      H1662   1.083       .  S
C1658      C1659   1.408       .  A
C1658      H1663   1.083       .  S
C1659      C1660   1.404       .  A
C1660      H1664   1.083       .  S
C1665      C1666   1.401       .  A
C1665      C1670   1.404       .  A
C1665      H1671   1.083       .  S
C1666      C1667   1.404       .  A
C1667      C1668   1.393       .  A
C1667      H1672   1.084       .  S
C1668      C1669   1.401       .  A
C1668      H1673   1.083       .  S
C1669      C1670   1.411       .  A
C1670      H1674   1.083       .  S
C1675      C1676   1.411       .  A
C1675      C1680   1.403       .  A
C1675      H1681   1.083       .  S
C1676      C1677   1.401       .  A
C1677      C1678   1.392       .  A
C1677      H1682   1.083       .  S
C1678      C1679   1.403       .  A
C1678      H1683   1.084       .  S
C1679      C1680   1.400       .  A
C1680      H1684   1.083       .  S
C1685      C1686   1.408       .  A
C1685      C1690   1.398       .  A
C1685      H1691   1.083       .  S
C1686      C1687   1.402       .  A
C1687      C1688   1.398       .  A
C1687      H1692   1.083       .  S
C1688      C1689   1.409       .  A
C1688      H1693   1.083       .  S
C1689      C1690   1.403       .  A
C1690      H1694   1.083       .  S
C1695      C1696   1.405       .  A
C1695      C1700   1.393       .  A
C1695      H1701   1.084       .  S
C1696      C1697   1.401       .  A
C1697      C1698   1.404       .  A
C1697      H1702   1.083       .  S
C1698      C1699   1.410       .  A
C1698      H1703   1.083       .  S
C1699      C1700   1.401       .  A
C1700      H1704   1.083       .  S
C1705      C1706   1.401       .  A
C1705      C1710   1.394       .  A
C1705      H1711   1.083       .  S
C1706      C1707   1.410       .  A
C1707      C1708   1.402       .  A
C1707      H1712   1.083       .  S
C1708      C1709   1.399       .  A
C1708      H1713   1.083       .  S
C1709      C1710   1.405       .  A
C1710      H1714   1.084       .  S
C1715      C1716   1.403       .  A
C1715      C1720   1.399       .  A
C1715      H1721   1.083       .  S
C1716      C1717   1.408       .  A
C1717      C1718   1.399       .  A
C1717      H1722   1.083       .  S
C1718      C1719   1.403       .  A
C1718      H1723   1.083       .  S
C1719      C1720   1.408       .  A
C1720      H1724   1.083       .  S
C1725      C1726   1.404       .  A
C1725      C1730   1.390       .  A
C1725      H1731   1.084       .  S
C1726      C1727   1.400       .  A
C1727      C1728   1.401       .  A
C1727      H1732   1.083       .  S
C1728      C1729   1.409       .  A
C1728      H1733   1.083       .  S
C1729      C1730   1.399       .  A
C1730      H1734   1.083       .  S
C1735      C1736   1.409       .  A
C1735      C1740   1.403       .  A
C1735      H1741   1.083       .  S
C1736      C1737   1.400       .  A
C1737      C1738   1.393       .  A
C1737      H1742   1.084       .  S
C1738      C1739   1.406       .  A
C1738      H1743   1.083       .  S
C1739      C1740   1.401       .  A
C1740      H1744   1.083       .  S
C1745      C1746   1.409   1_545  A
C1745      C1750   1.400       .  A
C1745      H1751   1.083       .  S
C1746      C1747   1.403       .  A
C1747      C1748   1.400   1_565  A
C1747      H1752   1.083       .  S
C1748      C1749   1.409       .  A
C1748      H1753   1.083       .  S
C1749      C1750   1.404       .  A
C1750      H1754   1.083       .  S
C1755      C1756   1.408       .  A
C1755      C1760   1.401       .  A
C1755      H1761   1.083       .  S
C1756      C1757   1.404       .  A
C1757      C1758   1.402       .  A
C1757      H1762   1.083       .  S
C1758      C1759   1.409       .  A
C1758      H1763   1.083       .  S
C1759      C1760   1.405       .  A
C1760      H1764   1.083       .  S
C1765      C1766   1.411       .  A
C1765      C1770   1.404       .  A
C1765      H1771   1.083       .  S
C1766      C1767   1.401       .  A
C1767      C1768   1.394       .  A
C1767      H1772   1.083       .  S
C1768      C1769   1.405       .  A
C1768      H1773   1.084       .  S
C1769      C1770   1.401       .  A
C1770      H1774   1.083       .  S
C1775      C1776   1.410       .  A
C1775      C1780   1.403       .  A
C1775      H1781   1.083       .  S
C1776      C1777   1.400       .  A
C1777      C1778   1.392       .  A
C1777      H1782   1.083       .  S
C1778      C1779   1.405       .  A
C1778      H1783   1.084       .  S
C1779      C1780   1.401       .  A
C1780      H1784   1.083       .  S
C1785      C1786   1.405       .  A
C1785      C1790   1.393       .  A
C1785      H1791   1.084       .  S
C1786      C1787   1.400       .  A
C1787      C1788   1.402       .  A
C1787      H1792   1.083       .  S
C1788      C1789   1.411       .  A
C1788      H1793   1.083       .  S
C1789      C1790   1.400       .  A
C1790      H1794   1.083       .  S
C1795      C1796   1.409       .  A
C1795      C1800   1.401       .  A
C1795      H1801   1.083       .  S
C1796      C1797   1.404       .  A
C1797      C1798   1.402       .  A
C1797      H1802   1.083       .  S
C1798      C1799   1.410       .  A
C1798      H1803   1.083       .  S
C1799      C1800   1.404       .  A
C1800      H1804   1.083       .  S
C1805      C1806   1.411       .  A
C1805      C1810   1.402       .  A
C1805      H1811   1.083       .  S
C1806      C1807   1.404       .  A
C1807      C1808   1.396       .  A
C1807      H1812   1.083       .  S
C1808      C1809   1.403       .  A
C1808      H1813   1.084       .  S
C1809      C1810   1.399       .  A
C1810      H1814   1.083       .  S
C1815      C1816   1.403       .  A
C1815      C1820   1.400       .  A
C1815      H1821   1.083       .  S
C1816      C1817   1.408       .  A
C1817      C1818   1.399   1_455  A
C1817      H1822   1.083       .  S
C1818      C1819   1.403       .  A
C1818      H1823   1.083       .  S
C1819      C1820   1.409   1_655  A
C1820      H1824   1.083       .  S
C1825      C1826   1.401       .  A
C1825      C1830   1.404       .  A
C1825      H1831   1.083       .  S
C1826      C1827   1.405       .  A
C1827      C1828   1.394       .  A
C1827      H1832   1.084       .  S
C1828      C1829   1.401       .  A
C1828      H1833   1.083       .  S
C1829      C1830   1.410       .  A
C1830      H1834   1.083       .  S
C1835      C1836   1.410       .  A
C1835      C1840   1.405       .  A
C1835      H1841   1.083       .  S
C1836      C1837   1.400       .  A
C1837      C1838   1.394       .  A
C1837      H1842   1.083       .  S
C1838      C1839   1.406       .  A
C1838      H1843   1.084       .  S
C1839      C1840   1.402       .  A
C1840      H1844   1.083       .  S
C1845      C1846   1.404       .  A
C1845      C1850   1.402   1_565  A
C1845      H1851   1.083       .  S
C1846      C1847   1.409   1_565  A
C1847      C1848   1.400       .  A
C1847      H1852   1.083       .  S
C1848      C1849   1.403       .  A
C1848      H1853   1.083       .  S
C1849      C1850   1.410       .  A
C1850      H1854   1.083       .  S
C1855      C1856   1.401       .  A
C1855      C1860   1.395       .  A
C1855      H1861   1.083       .  S
C1856      C1857   1.410       .  A
C1857      C1858   1.403       .  A
C1857      H1862   1.083       .  S
C1858      C1859   1.402       .  A
C1858      H1863   1.083       .  S
C1859      C1860   1.405       .  A
C1860      H1864   1.084       .  S
C1865      C1866   1.409   1_554  A
C1865      C1870   1.401       .  A
C1865      H1871   1.083       .  S
C1866      C1867   1.404       .  A
C1867      C1868   1.401   1_556  A
C1867      H1872   1.083       .  S
C1868      C1869   1.409       .  A
C1868      H1873   1.083       .  S
C1869      C1870   1.404       .  A
C1870      H1874   1.083       .  S
C1875      C1876   1.406       .  A
C1875      C1880   1.393       .  A
C1875      H1881   1.084       .  S
C1876      C1877   1.401       .  A
C1877      C1878   1.404       .  A
C1877      H1882   1.083       .  S
C1878      C1879   1.410       .  A
C1878      H1883   1.083       .  S
C1879      C1880   1.400       .  A
C1880      H1884   1.083       .  S
C1885      C1886   1.409       .  A
C1885      C1890   1.403       .  A
C1885      H1891   1.083       .  S
C1886      C1887   1.400       .  A
C1887      C1888   1.392       .  A
C1887      H1892   1.083       .  S
C1888      C1889   1.405       .  A
C1888      H1893   1.084       .  S
C1889      C1890   1.401       .  A
C1890      H1894   1.083       .  S
C1895      C1896   1.409       .  A
C1895      C1900   1.400       .  A
C1895      H1901   1.083       .  S
C1896      C1897   1.404       .  A
C1897      C1898   1.399       .  A
C1897      H1902   1.083       .  S
C1898      C1899   1.408       .  A
C1898      H1903   1.083       .  S
C1899      C1900   1.404       .  A
C1900      H1904   1.083       .  S
C1905      C1906   1.402       .  A
C1905      C1910   1.406       .  A
C1905      H1911   1.083       .  S
C1906      C1907   1.407       .  A
C1907      C1908   1.395       .  A
C1907      H1912   1.084       .  S
C1908      C1909   1.400       .  A
C1908      H1913   1.083       .  S
C1909      C1910   1.411       .  A
C1910      H1914   1.083       .  S
C1915      C1916   1.409       .  A
C1915      C1920   1.399       .  A
C1915      H1921   1.083       .  S
C1916      C1917   1.402       .  A
C1917      C1918   1.398       .  A
C1917      H1922   1.083       .  S
C1918      C1919   1.409       .  A
C1918      H1923   1.083       .  S
C1919      C1920   1.403       .  A
C1920      H1924   1.083       .  S
C1925      C1926   1.401       .  A
C1925      C1930   1.402       .  A
C1925      H1931   1.083       .  S
C1926      C1927   1.405       .  A
C1927      C1928   1.391       .  A
C1927      H1932   1.084       .  S
C1928      C1929   1.399       .  A
C1928      H1933   1.084       .  S
C1929      C1930   1.408       .  A
C1930      H1934   1.083       .  S
C1935      C1936   1.409       .  A
C1935      C1940   1.399       .  A
C1935      H1941   1.083       .  S
C1936      C1937   1.400       .  A
C1937      C1938   1.393       .  A
C1937      H1942   1.083       .  S
C1938      C1939   1.405       .  A
C1938      H1943   1.084       .  S
C1939      C1940   1.399       .  A
C1940      H1944   1.083       .  S
C1945      C1946   1.404       .  A
C1945      C1950   1.400       .  A
C1945      H1951   1.083   1_545  S
C1946      C1947   1.408       .  A
C1947      C1948   1.401       .  A
C1947      H1952   1.083       .  S
C1948      C1949   1.405       .  A
C1948      H1953   1.083       .  S
C1949      C1950   1.409       .  A
C1950      H1954   1.083       .  S
C1955      C1956   1.403       .  A
C1955      C1960   1.399       .  A
C1955      H1961   1.083       .  S
C1956      C1957   1.410       .  A
C1957      C1958   1.402       .  A
C1957      H1962   1.083       .  S
C1958      C1959   1.404       .  A
C1958      H1963   1.083       .  S
C1959      C1960   1.409       .  A
C1960      H1964   1.083       .  S
C1965      C1966   1.403       .  A
C1965      C1970   1.404       .  A
C1965      H1971   1.083       .  S
C1966      C1967   1.407       .  A
C1967      C1968   1.394       .  A
C1967      H1972   1.084       .  S
C1968      C1969   1.400       .  A
C1968      H1973   1.084       .  S
C1969      C1970   1.408       .  A
C1970      H1974   1.083       .  S
C1975      C1976   1.406       .  A
C1975      C1980   1.401   1_556  A
C1975      H1981   1.083       .  S
C1976      C1977   1.409   1_556  A
C1977      C1978   1.401       .  A
C1977      H1982   1.083       .  S
C1978      C1979   1.403       .  A
C1978      H1983   1.083       .  S
C1979      C1980   1.408       .  A
C1980      H1984   1.083       .  S
C1985      C1986   1.403       .  A
C1985      C1990   1.400       .  A
C1985      H1991   1.083       .  S
C1986      C1987   1.410       .  A
C1987      C1988   1.402       .  A
C1987      H1992   1.083       .  S
C1988      C1989   1.404       .  A
C1988      H1993   1.083       .  S
C1989      C1990   1.410       .  A
C1990      H1994   1.083       .  S
C1995      C1996   1.406       .  A
C1995      C2000   1.395       .  A
C1995      H2001   1.084       .  S
C1996      C1997   1.401       .  A
C1997      C1998   1.405       .  A
C1997      H2002   1.083       .  S
C1998      C1999   1.410       .  A
C1998      H2003   1.083       .  S
C1999      C2000   1.401       .  A
C2000      H2004   1.083       .  S
C2005      C2006   1.401       .  A
C2005      C2010   1.392       .  A
C2005      H2011   1.083       .  S
C2006      C2007   1.411       .  A
C2007      C2008   1.403       .  A
C2007      H2012   1.083       .  S
C2008      C2009   1.400       .  A
C2008      H2013   1.083       .  S
C2009      C2010   1.403       .  A
C2010      H2014   1.084       .  S
C2015      C2016   1.409   1_455  A
C2015      C2020   1.401       .  A
C2015      H2021   1.083       .  S
C2016      C2017   1.403       .  A
C2017      C2018   1.401   1_655  A
C2017      H2022   1.083       .  S
C2018      C2019   1.410       .  A
C2018      H2023   1.083       .  S
C2019      C2020   1.404       .  A
C2020      H2024   1.083       .  S
C2025      C2026   1.400       .  A
C2025      C2030   1.402       .  A
C2025      H2031   1.083       .  S
C2026      C2027   1.406       .  A
C2027      C2028   1.394       .  A
C2027      H2032   1.084       .  S
C2028      C2029   1.401       .  A
C2028      H2033   1.083       .  S
C2029      C2030   1.409       .  A
C2030      H2034   1.083       .  S
C2035      C2036   1.408       .  A
C2035      C2040   1.399       .  A
C2035      H2041   1.083       .  S
C2036      C2037   1.403       .  A
C2037      C2038   1.400       .  A
C2037      H2042   1.083       .  S
C2038      C2039   1.409       .  A
C2038      H2043   1.083       .  S
C2039      C2040   1.403       .  A
C2040      H2044   1.083       .  S
C2045      C2046   1.405       .  A
C2045      C2050   1.394       .  A
C2045      H2051   1.084       .  S
C2046      C2047   1.400       .  A
C2047      C2048   1.401       .  A
C2047      H2052   1.083       .  S
C2048      C2049   1.409       .  A
C2048      H2053   1.083       .  S
C2049      C2050   1.401       .  A
C2050      H2054   1.083       .  S
C2055      C2056   1.399       .  A
C2055      C2060   1.393       .  A
C2055      H2061   1.083       .  S
C2056      C2057   1.407       .  A
C2057      C2058   1.400       .  A
C2057      H2062   1.083       .  S
C2058      C2059   1.401       .  A
C2058      H2063   1.083       .  S
C2059      C2060   1.406       .  A
C2060      H2064   1.084       .  S
C2065      C2066   1.408       .  A
C2065      C2070   1.394       .  A
C2065      H2071   1.083       .  S
C2066      C2067   1.402       .  A
C2067      C2068   1.395       .  A
C2067      H2072   1.083       .  S
C2068      C2069   1.407       .  A
C2068      H2073   1.083       .  S
C2069      C2070   1.400       .  A
C2070      H2074   1.083       .  S
C2075      C2076   1.400       .  A
C2075      C2080   1.394       .  A
C2075      H2081   1.083       .  S
C2076      C2077   1.409       .  A
C2077      C2078   1.395       .  A
C2077      H2082   1.082       .  S
C2078      C2079   1.400       .  A
C2078      H2083   1.084       .  S
C2079      C2080   1.408       .  A
C2080      H2084   1.083       .  S
C2085      C2086   1.411       .  A
C2085      C2090   1.402       .  A
C2085      H2091   1.083       .  S
C2086      C2087   1.402       .  A
C2087      C2088   1.394       .  A
C2087      H2092   1.083       .  S
C2088      C2089   1.404       .  A
C2088      H2093   1.084       .  S
C2089      C2090   1.399       .  A
C2090      H2094   1.083       .  S
C2095      C2096   1.402       .  A
C2095      C2100   1.397       .  A
C2095      H2101   1.083       .  S
C2096      C2097   1.407       .  A
C2097      C2098   1.393       .  A
C2097      H2102   1.083       .  S
C2098      C2099   1.400       .  A
C2098      H2103   1.083       .  S
C2099      C2100   1.408       .  A
C2100      H2104   1.083       .  S
C2105      C2106   1.409       .  A
C2105      C2110   1.403       .  A
C2105      H2111   1.083       .  S
C2106      C2107   1.399       .  A
C2107      C2108   1.392       .  A
C2107      H2112   1.083       .  S
C2108      C2109   1.406       .  A
C2108      H2113   1.084       .  S
C2109      C2110   1.402       .  A
C2110      H2114   1.083       .  S
C2115      C2116   1.400       .  A
C2115      C2120   1.395       .  A
C2115      H2121   1.083       .  S
C2116      C2117   1.409       .  A
C2117      C2118   1.396       .  A
C2117      H2122   1.083       .  S
C2118      C2119   1.401       .  A
C2118      H2123   1.083       .  S
C2119      C2120   1.409       .  A
C2120      H2124   1.083       .  S
C2125      C2126   1.406       .  A
C2125      C2130   1.394       .  A
C2125      H2131   1.084       .  S
C2126      C2127   1.402       .  A
C2127      C2128   1.405       .  A
C2127      H2132   1.083       .  S
C2128      C2129   1.410       .  A
C2128      H2133   1.083       .  S
C2129      C2130   1.401       .  A
C2130      H2134   1.083       .  S
C2135      C2136   1.408       .  A
C2135      C2140   1.394       .  A
C2135      H2141   1.083       .  S
C2136      C2137   1.399       .  A
C2137      C2138   1.394       .  A
C2137      H2142   1.083       .  S
C2138      C2139   1.409       .  A
C2138      H2143   1.082       .  S
C2139      C2140   1.400       .  A
C2140      H2144   1.083       .  S
C2145      C2146   1.397       .  A
C2145      C2150   1.390       .  A
C2145      H2151   1.084       .  S
C2146      C2147   1.409       .  A
C2147      C2148   1.403       .  A
C2147      H2152   1.083       .  S
C2148      C2149   1.402       .  A
C2148      H2153   1.083       .  S
C2149      C2150   1.406       .  A
C2150      H2154   1.084       .  S
C2155      C2156   1.402       .  A
C2155      C2160   1.396       .  A
C2155      H2161   1.083       .  S
C2156      C2157   1.409       .  A
C2157      C2158   1.395       .  A
C2157      H2162   1.082       .  S
C2158      C2159   1.399       .  A
C2158      H2163   1.083       .  S
C2159      C2160   1.407       .  A
C2160      H2164   1.083       .  S
C2165      C2166   1.410       .  A
C2165      C2170   1.403       .  A
C2165      H2171   1.083       .  S
C2166      C2167   1.401       .  A
C2167      C2168   1.394       .  A
C2167      H2172   1.083       .  S
C2168      C2169   1.405       .  A
C2168      H2173   1.084       .  S
C2169      C2170   1.401       .  A
C2170      H2174   1.083       .  S
C2175      C2176   1.402       .  A
C2175      C2180   1.403       .  A
C2175      H2181   1.083       .  S
C2176      C2177   1.406       .  A
C2177      C2178   1.393       .  A
C2177      H2182   1.084       .  S
C2178      C2179   1.400       .  A
C2178      H2183   1.083       .  S
C2179      C2180   1.409       .  A
C2180      H2184   1.083       .  S
C2185      C2186   1.400       .  A
C2185      C2190   1.395       .  A
C2185      H2191   1.083       .  S
C2186      C2187   1.408       .  A
C2187      C2188   1.396       .  A
C2187      H2192   1.083       .  S
C2188      C2189   1.401       .  A
C2188      H2193   1.083       .  S
C2189      C2190   1.409       .  A
C2190      H2194   1.083       .  S
C2195      C2196   1.409       .  A
C2195      C2200   1.402       .  A
C2195      H2201   1.083       .  S
C2196      C2197   1.405   1_655  A
C2197      C2198   1.402   1_545  A
C2197      H2202   1.083   1_545  S
C2198      C2199   1.409   1_465  A
C2198      H2203   1.083       .  S
C2199      C2200   1.405       .  A
C2200      H2204   1.083       .  S
C2205      C2206   1.409       .  A
C2205      C2210   1.395       .  A
C2205      H2211   1.083       .  S
C2206      C2207   1.399       .  A
C2207      C2208   1.391       .  A
C2207      H2212   1.083       .  S
C2208      C2209   1.407       .  A
C2208      H2213   1.083       .  S
C2209      C2210   1.400       .  A
C2210      H2214   1.083       .  S
C2215      C2216   1.412       .  A
C2215      C2220   1.402       .  A
C2215      H2221   1.083       .  S
C2216      C2217   1.403       .  A
C2217      C2218   1.397       .  A
C2217      H2222   1.083       .  S
C2218      C2219   1.404       .  A
C2218      H2223   1.084       .  S
C2219      C2220   1.399       .  A
C2220      H2224   1.083       .  S
C2225      C2226   1.399       .  A
C2225      C2230   1.392       .  A
C2225      H2231   1.083       .  S
C2226      C2227   1.408       .  A
C2227      C2228   1.393       .  A
C2227      H2232   1.083       .  S
C2228      C2229   1.400       .  A
C2228      H2233   1.084       .  S
C2229      C2230   1.407       .  A
C2230      H2234   1.083       .  S
C2235      C2236   1.398       .  A
C2235      C2240   1.389       .  A
C2235      H2241   1.083       .  S
C2236      C2237   1.409       .  A
C2237      C2238   1.403       .  A
C2237      H2242   1.083       .  S
C2238      C2239   1.402       .  A
C2238      H2243   1.083       .  S
C2239      C2240   1.404       .  A
C2240      H2244   1.084       .  S
C2245      C2246   1.409       .  A
C2245      C2250   1.395       .  A
C2245      H2251   1.083       .  S
C2246      C2247   1.400       .  A
C2247      C2248   1.394       .  A
C2247      H2252   1.083       .  S
C2248      C2249   1.408       .  A
C2248      H2253   1.083       .  S
C2249      C2250   1.399       .  A
C2250      H2254   1.083       .  S
C2255      C2256   1.409   1_565  A
C2255      C2260   1.400   1_565  A
C2255      H2261   1.083       .  S
C2256      C2257   1.403       .  A
C2257      C2258   1.399       .  A
C2257      H2262   1.083       .  S
C2258      C2259   1.408       .  A
C2258      H2263   1.083       .  S
C2259      C2260   1.404       .  A
C2260      H2264   1.083   1_545  S
C2265      C2266   1.410       .  A
C2265      C2270   1.401       .  A
C2265      H2271   1.083       .  S
C2266      C2267   1.400       .  A
C2267      C2268   1.391       .  A
C2267      H2272   1.083       .  S
C2268      C2269   1.405       .  A
C2268      H2273   1.084       .  S
C2269      C2270   1.400       .  A
C2270      H2274   1.083       .  S
C2275      C2276   1.410       .  A
C2275      C2280   1.400       .  A
C2275      H2281   1.083       .  S
C2276      C2277   1.399       .  A
C2277      C2278   1.392       .  A
C2277      H2282   1.083       .  S
C2278      C2279   1.409       .  A
C2278      H2283   1.083       .  S
C2279      C2280   1.401       .  A
C2280      H2284   1.083       .  S
C2285      C2286   1.398       .  A
C2285      C2290   1.391       .  A
C2285      H2291   1.083       .  S
C2286      C2287   1.409       .  A
C2287      C2288   1.402       .  A
C2287      H2292   1.083       .  S
C2288      C2289   1.401       .  A
C2288      H2293   1.083       .  S
C2289      C2290   1.406       .  A
C2290      H2294   1.084       .  S
C2295      C2296   1.398       .  A
C2295      C2300   1.392       .  A
C2295      H2301   1.083       .  S
C2296      C2297   1.409       .  A
C2297      C2298   1.394       .  A
C2297      H2302   1.083       .  S
C2298      C2299   1.400       .  A
C2298      H2303   1.083       .  S
C2299      C2300   1.409       .  A
C2300      H2304   1.083       .  S
C2305      C2306   1.410       .  A
C2305      C2310   1.404       .  A
C2305      H2311   1.083       .  S
C2306      C2307   1.400       .  A
C2307      C2308   1.391       .  A
C2307      H2312   1.083       .  S
C2308      C2309   1.404       .  A
C2308      H2313   1.084       .  S
C2309      C2310   1.401       .  A
C2310      H2314   1.083       .  S
C2315      C2316   1.411       .  A
C2315      C2320   1.406       .  A
C2315      H2321   1.083       .  S
C2316      C2317   1.399       .  A
C2317      C2318   1.391       .  A
C2317      H2322   1.083       .  S
C2318      C2319   1.405       .  A
C2318      H2323   1.084       .  S
C2319      C2320   1.403       .  A
C2320      H2324   1.083       .  S
C2325      C2326   1.399       .  A
C2325      C2330   1.392       .  A
C2325      H2331   1.083       .  S
C2326      C2327   1.407       .  A
C2327      C2328   1.395       .  A
C2327      H2332   1.083       .  S
C2328      C2329   1.402       .  A
C2328      H2333   1.083       .  S
C2329      C2330   1.407       .  A
C2330      H2334   1.083       .  S
C2335      C2336   1.404   1_554  A
C2335      C2340   1.399       .  A
C2335      H2341   1.083       .  S
C2336      C2337   1.409       .  A
C2337      C2338   1.399       .  A
C2337      H2342   1.083       .  S
C2338      C2339   1.402   1_556  A
C2338      H2343   1.083       .  S
C2339      C2340   1.408       .  A
C2340      H2344   1.083       .  S
C2345      C2346   1.408       .  A
C2345      C2350   1.392       .  A
C2345      H2351   1.083       .  S
C2346      C2347   1.400       .  A
C2347      C2348   1.395       .  A
C2347      H2352   1.083       .  S
C2348      C2349   1.408       .  A
C2348      H2353   1.083       .  S
C2349      C2350   1.399       .  A
C2350      H2354   1.083       .  S
C2355      C2356   1.404       .  A
C2355      C2360   1.392       .  A
C2355      H2361   1.084       .  S
C2356      C2357   1.401       .  A
C2357      C2358   1.404       .  A
C2357      H2362   1.083       .  S
C2358      C2359   1.411       .  A
C2358      H2363   1.083       .  S
C2359      C2360   1.400       .  A
C2360      H2364   1.083       .  S
C2365      C2366   1.401       .  A
C2365      C2370   1.394       .  A
C2365      H2371   1.083       .  S
C2366      C2367   1.408       .  A
C2367      C2368   1.395       .  A
C2367      H2372   1.083       .  S
C2368      C2369   1.400       .  A
C2368      H2373   1.083       .  S
C2369      C2370   1.407       .  A
C2370      H2374   1.083       .  S
C2375      C2376   1.409       .  A
C2375      C2380   1.403       .  A
C2375      H2381   1.083       .  S
C2376      C2377   1.401       .  A
C2377      C2378   1.394       .  A
C2377      H2382   1.083       .  S
C2378      C2379   1.406       .  A
C2378      H2383   1.084       .  S
C2379      C2380   1.401       .  A
C2380      H2384   1.083       .  S
C2385      C2386   1.402       .  A
C2385      C2390   1.397       .  A
C2385      H2391   1.083       .  S
C2386      C2387   1.408       .  A
C2387      C2388   1.396       .  A
C2387      H2392   1.083       .  S
C2388      C2389   1.402       .  A
C2388      H2393   1.083       .  S
C2389      C2390   1.408       .  A
C2390      H2394   1.083       .  S
C2395      C2396   1.402       .  A
C2395      C2400   1.404       .  A
C2395      H2401   1.083       .  S
C2396      C2397   1.405       .  A
C2397      C2398   1.392       .  A
C2397      H2402   1.084       .  S
C2398      C2399   1.400       .  A
C2398      H2403   1.083       .  S
C2399      C2400   1.409       .  A
C2400      H2404   1.083       .  S
C2405      C2406   1.400       .  A
C2405      C2410   1.393       .  A
C2405      H2411   1.083       .  S
C2406      C2407   1.407       .  A
C2407      C2408   1.397       .  A
C2407      H2412   1.083       .  S
C2408      C2409   1.403       .  A
C2408      H2413   1.083       .  S
C2409      C2410   1.407       .  A
C2410      H2414   1.083       .  S
C2415      C2416   1.408       .  A
C2415      C2420   1.399       .  A
C2415      H2421   1.083       .  S
C2416      C2417   1.403       .  A
C2417      C2418   1.400   1_554  A
C2417      H2422   1.083   1_554  S
C2418      C2419   1.410   1_556  A
C2418      H2423   1.083       .  S
C2419      C2420   1.403       .  A
C2420      H2424   1.083       .  S
C2425      C2426   1.400       .  A
C2425      C2430   1.392       .  A
C2425      H2431   1.083       .  S
C2426      C2427   1.408       .  A
C2427      C2428   1.401       .  A
C2427      H2432   1.083       .  S
C2428      C2429   1.401       .  A
C2428      H2433   1.083       .  S
C2429      C2430   1.405       .  A
C2430      H2434   1.084       .  S
C2435      C2436   1.401       .  A
C2435      C2440   1.396       .  A
C2435      H2441   1.083       .  S
C2436      C2437   1.409       .  A
C2437      C2438   1.395       .  A
C2437      H2442   1.083       .  S
C2438      C2439   1.400       .  A
C2438      H2443   1.083       .  S
C2439      C2440   1.408       .  A
C2440      H2444   1.083       .  S
C2445      C2446   1.401       .  A
C2445      C2450   1.403       .  A
C2445      H2451   1.083       .  S
C2446      C2447   1.405       .  A
C2447      C2448   1.394       .  A
C2447      H2452   1.084       .  S
C2448      C2449   1.402       .  A
C2448      H2453   1.083       .  S
C2449      C2450   1.409       .  A
C2450      H2454   1.083       .  S
C2455      C2456   1.412       .  A
C2455      C2460   1.399       .  A
C2455      H2461   1.083       .  S
C2456      C2457   1.403       .  A
C2457      C2458   1.397       .  A
C2457      H2462   1.083       .  S
C2458      C2459   1.403       .  A
C2458      H2463   1.084       .  S
C2459      C2460   1.397       .  A
C2460      H2464   1.083       .  S
C2465      C2466   1.410       .  A
C2465      C2470   1.395       .  A
C2465      H2471   1.083       .  S
C2466      C2467   1.401       .  A
C2467      C2468   1.395       .  A
C2467      H2472   1.083       .  S
C2468      C2469   1.407       .  A
C2468      H2473   1.083       .  S
C2469      C2470   1.399       .  A
C2470      H2474   1.083       .  S
C2475      C2476   1.404       .  A
C2475      C2480   1.401       .  A
C2475      H2481   1.083       .  S
C2476      C2477   1.409       .  A
C2477      C2478   1.401       .  A
C2477      H2482   1.083       .  S
C2478      C2479   1.404       .  A
C2478      H2483   1.083       .  S
C2479      C2480   1.409       .  A
C2480      H2484   1.083       .  S
C2485      C2486   1.409       .  A
C2485      C2490   1.397       .  A
C2485      H2491   1.083       .  S
C2486      C2487   1.399       .  A
C2487      C2488   1.394       .  A
C2487      H2492   1.083       .  S
C2488      C2489   1.409       .  A
C2488      H2493   1.083       .  S
C2489      C2490   1.400       .  A
C2490      H2494   1.083       .  S
C2495      C2496   1.408       .  A
C2495      C2500   1.399       .  A
C2495      H2501   1.083       .  S
C2496      C2497   1.404       .  A
C2497      C2498   1.400   1_545  A
C2497      H2502   1.083   1_545  S
C2498      C2499   1.408   1_565  A
C2498      H2503   1.083       .  S
C2499      C2500   1.404       .  A
C2500      H2504   1.083       .  S
C2505      C2506   1.404       .  A
C2505      C2510   1.394       .  A
C2505      H2511   1.084       .  S
C2506      C2507   1.400       .  A
C2507      C2508   1.404       .  A
C2507      H2512   1.083       .  S
C2508      C2509   1.411       .  A
C2508      H2513   1.083       .  S
C2509      C2510   1.401       .  A
C2510      H2514   1.083       .  S
C2515      C2516   1.399       .  A
C2515      C2520   1.393       .  A
C2515      H2521   1.083       .  S
C2516      C2517   1.408       .  A
C2517      C2518   1.396       .  A
C2517      H2522   1.083       .  S
C2518      C2519   1.401       .  A
C2518      H2523   1.084       .  S
C2519      C2520   1.408       .  A
C2520      H2524   1.082       .  S
C2525      C2526   1.404       .  A
C2525      C2530   1.399       .  A
C2525      H2531   1.083       .  S
C2526      C2527   1.410       .  A
C2527      C2528   1.402       .  A
C2527      H2532   1.083       .  S
C2528      C2529   1.403       .  A
C2528      H2533   1.083       .  S
C2529      C2530   1.408       .  A
C2530      H2534   1.083       .  S
C2535      C2536   1.408       .  A
C2535      C2540   1.395       .  A
C2535      H2541   1.083       .  S
C2536      C2537   1.400       .  A
C2537      C2538   1.396       .  A
C2537      H2542   1.083       .  S
C2538      C2539   1.409       .  A
C2538      H2543   1.083       .  S
C2539      C2540   1.401       .  A
C2540      H2544   1.083       .  S
C2545      C2546   1.398       .  A
C2545      C2550   1.391       .  A
C2545      H2551   1.084       .  S
C2546      C2547   1.409       .  A
C2547      C2548   1.404       .  A
C2547      H2552   1.083       .  S
C2548      C2549   1.402       .  A
C2548      H2553   1.083       .  S
C2549      C2550   1.406       .  A
C2550      H2554   1.084       .  S
C2555      C2556   1.399       .  A
C2555      C2560   1.393       .  A
C2555      H2561   1.084       .  S
C2556      C2557   1.409       .  A
C2557      C2558   1.402       .  A
C2557      H2562   1.083       .  S
C2558      C2559   1.401       .  A
C2558      H2563   1.083       .  S
C2559      C2560   1.407       .  A
C2560      H2564   1.084       .  S
C2565      C2566   1.401       .  A
C2565      C2570   1.396       .  A
C2565      H2571   1.083       .  S
C2566      C2567   1.409       .  A
C2567      C2568   1.396       .  A
C2567      H2572   1.083       .  S
C2568      C2569   1.401       .  A
C2568      H2573   1.083       .  S
C2569      C2570   1.408       .  A
C2570      H2574   1.083       .  S
C2575      C2576   1.404       .  A
C2575      C2580   1.401       .  A
C2575      H2581   1.083       .  S
C2576      C2577   1.409   1_545  A
C2577      C2578   1.400   1_565  A
C2577      H2582   1.083       .  S
C2578      C2579   1.404       .  A
C2578      H2583   1.083   1_545  S
C2579      C2580   1.409       .  A
C2580      H2584   1.083       .  S
C2585      C2586   1.403       .  A
C2585      C2590   1.405       .  A
C2585      H2591   1.083       .  S
C2586      C2587   1.405       .  A
C2587      C2588   1.393       .  A
C2587      H2592   1.084       .  S
C2588      C2589   1.400       .  A
C2588      H2593   1.083       .  S
C2589      C2590   1.410       .  A
C2590      H2594   1.083       .  S
C2595      C2596   1.408       .  A
C2595      C2600   1.396       .  A
C2595      H2601   1.083       .  S
C2596      C2597   1.399       .  A
C2597      C2598   1.395       .  A
C2597      H2602   1.083       .  S
C2598      C2599   1.409       .  A
C2598      H2603   1.082       .  S
C2599      C2600   1.401       .  A
C2600      H2604   1.083       .  S
C2605      C2606   1.406       .  A
C2605      C2610   1.393       .  A
C2605      H2611   1.084       .  S
C2606      C2607   1.403       .  A
C2607      C2608   1.405       .  A
C2607      H2612   1.083       .  S
C2608      C2609   1.410       .  A
C2608      H2613   1.083       .  S
C2609      C2610   1.400       .  A
C2610      H2614   1.083       .  S
C2615      C2616   1.399       .  A
C2615      C2620   1.393       .  A
C2615      H2621   1.083       .  S
C2616      C2617   1.411       .  A
C2617      C2618   1.404       .  A
C2617      H2622   1.083       .  S
C2618      C2619   1.401       .  A
C2618      H2623   1.083       .  S
C2619      C2620   1.407       .  A
C2620      H2624   1.084       .  S
C2625      C2626   1.409       .  A
C2625      C2630   1.395       .  A
C2625      H2631   1.082       .  S
C2626      C2627   1.403       .  A
C2627      C2628   1.398       .  A
C2627      H2632   1.083       .  S
C2628      C2629   1.408       .  A
C2628      H2633   1.083       .  S
C2629      C2630   1.399       .  A
C2630      H2634   1.083       .  S
C2635      C2636   1.409       .  A
C2635      C2640   1.398       .  A
C2635      H2641   1.083       .  S
C2636      C2637   1.401       .  A
C2637      C2638   1.395       .  A
C2637      H2642   1.083       .  S
C2638      C2639   1.408       .  A
C2638      H2643   1.083       .  S
C2639      C2640   1.401       .  A
C2640      H2644   1.083       .  S
C2645      C2646   1.404       .  A
C2645      C2650   1.396       .  A
C2645      H2651   1.084       .  S
C2646      C2647   1.399       .  A
C2647      C2648   1.402       .  A
C2647      H2652   1.083       .  S
C2648      C2649   1.411       .  A
C2648      H2653   1.083       .  S
C2649      C2650   1.403       .  A
C2650      H2654   1.083       .  S
C2655      C2656   1.400       .  A
C2655      C2660   1.394       .  A
C2655      H2661   1.084       .  S
C2656      C2657   1.409       .  A
C2657      C2658   1.395       .  A
C2657      H2662   1.082       .  S
C2658      C2659   1.400       .  A
C2658      H2663   1.083       .  S
C2659      C2660   1.409       .  A
C2660      H2664   1.083       .  S
C2665      C2666   1.408       .  A
C2665      C2670   1.399       .  A
C2665      H2671   1.083       .  S
C2666      C2667   1.402       .  A
C2667      C2668   1.400       .  A
C2667      H2672   1.083       .  S
C2668      C2669   1.410       .  A
C2668      H2673   1.083       .  S
C2669      C2670   1.404       .  A
C2670      H2674   1.083       .  S
C2675      C2676   1.406       .  A
C2675      C2680   1.393       .  A
C2675      H2681   1.084       .  S
C2676      C2677   1.402       .  A
C2677      C2678   1.404       .  A
C2677      H2682   1.083       .  S
C2678      C2679   1.409       .  A
C2678      H2683   1.083       .  S
C2679      C2680   1.400       .  A
C2680      H2684   1.083       .  S
C2685      C2686   1.401       .  A
C2685      C2690   1.396       .  A
C2685      H2691   1.083       .  S
C2686      C2687   1.408       .  A
C2687      C2688   1.395       .  A
C2687      H2692   1.083       .  S
C2688      C2689   1.400       .  A
C2688      H2693   1.083       .  S
C2689      C2690   1.409       .  A
C2690      H2694   1.083       .  S
C2695      C2696   1.406       .  A
C2695      C2700   1.392       .  A
C2695      H2701   1.084       .  S
C2696      C2697   1.402       .  A
C2697      C2698   1.404       .  A
C2697      H2702   1.083       .  S
C2698      C2699   1.410       .  A
C2698      H2703   1.083       .  S
C2699      C2700   1.398       .  A
C2700      H2704   1.083       .  S
C2705      C2706   1.401       .  A
C2705      C2710   1.394       .  A
C2705      H2711   1.083       .  S
C2706      C2707   1.409       .  A
C2707      C2708   1.398       .  A
C2707      H2712   1.083       .  S
C2708      C2709   1.402       .  A
C2708      H2713   1.083       .  S
C2709      C2710   1.407       .  A
C2710      H2714   1.083       .  S
C2715      C2716   1.404       .  A
C2715      C2720   1.395       .  A
C2715      H2721   1.084       .  S
C2716      C2717   1.401       .  A
C2717      C2718   1.403       .  A
C2717      H2722   1.083       .  S
C2718      C2719   1.410       .  A
C2718      H2723   1.083       .  S
C2719      C2720   1.402       .  A
C2720      H2724   1.083       .  S
C2725      C2726   1.400       .  A
C2725      C2730   1.396       .  A
C2725      H2731   1.083       .  S
C2726      C2727   1.408       .  A
C2727      C2728   1.392       .  A
C2727      H2732   1.083       .  S
C2728      C2729   1.400       .  A
C2728      H2733   1.083       .  S
C2729      C2730   1.409       .  A
C2730      H2734   1.083       .  S
C2735      C2736   1.403       .  A
C2735      C2740   1.401       .  A
C2735      H2741   1.083       .  S
C2736      C2737   1.409       .  A
C2737      C2738   1.401       .  A
C2737      H2742   1.083       .  S
C2738      C2739   1.404       .  A
C2738      H2743   1.083       .  S
C2739      C2740   1.411       .  A
C2740      H2744   1.083       .  S
C2745      C2746   1.408       .  A
C2745      C2750   1.393       .  A
C2745      H2751   1.084       .  S
C2746      C2747   1.402       .  A
C2747      C2748   1.405       .  A
C2747      H2752   1.083       .  S
C2748      C2749   1.409       .  A
C2748      H2753   1.083       .  S
C2749      C2750   1.399       .  A
C2750      H2754   1.083       .  S
C2755      C2756   1.401       .  A
C2755      C2760   1.394       .  A
C2755      H2761   1.083       .  S
C2756      C2757   1.410       .  A
C2757      C2758   1.404       .  A
C2757      H2762   1.083       .  S
C2758      C2759   1.402       .  A
C2758      H2763   1.083       .  S
C2759      C2760   1.406       .  A
C2760      H2764   1.084       .  S
C2765      C2766   1.408       .  A
C2765      C2770   1.393       .  A
C2765      H2771   1.082       .  S
C2766      C2767   1.402       .  A
C2767      C2768   1.399       .  A
C2767      H2772   1.083       .  S
C2768      C2769   1.409       .  A
C2768      H2773   1.083       .  S
C2769      C2770   1.400       .  A
C2770      H2774   1.084       .  S
C2775      C2776   1.409       .  A
C2775      C2780   1.400       .  A
C2775      H2781   1.083       .  S
C2776      C2777   1.399       .  A
C2777      C2778   1.392       .  A
C2777      H2782   1.083       .  S
C2778      C2779   1.408       .  A
C2778      H2783   1.083       .  S
C2779      C2780   1.402       .  A
C2780      H2784   1.083       .  S
C2785      C2786   1.402       .  A
C2785      C2790   1.399       .  A
C2785      H2791   1.083       .  S
C2786      C2787   1.411       .  A
C2787      C2788   1.403       .  A
C2787      H2792   1.083       .  S
C2788      C2789   1.404       .  A
C2788      H2793   1.083       .  S
C2789      C2790   1.410       .  A
C2790      H2794   1.083       .  S
C2795      C2796   1.410       .  A
C2795      C2800   1.404       .  A
C2795      H2801   1.080       .  S
C2796      C2797   1.399       .  A
C2797      C2798   1.395       .  A
C2797      H2802   1.086       .  S
C2798      C2799   1.409       .  A
C2798      H2803   1.081       .  S
C2799      C2800   1.402       .  A
C2800      H2804   1.086       .  S
C2805      C2806   1.399       .  A
C2805      C2810   1.394       .  A
C2805      H2811   1.083       .  S
C2806      C2807   1.410       .  A
C2807      C2808   1.397       .  A
C2807      H2812   1.083       .  S
C2808      C2809   1.400       .  A
C2808      H2813   1.083       .  S
C2809      C2810   1.409       .  A
C2810      H2814   1.083       .  S
C2815      C2816   1.410       .  A
C2815      C2820   1.404       .  A
C2815      H2821   1.083       .  S
C2816      C2817   1.403       .  A
C2817      C2818   1.401       .  A
C2817      H2822   1.083       .  S
C2818      C2819   1.410       .  A
C2818      H2823   1.083       .  S
C2819      C2820   1.405       .  A
C2820      H2824   1.083       .  S
C2825      C2826   1.405       .  A
C2825      C2830   1.394       .  A
C2825      H2831   1.086       .  S
C2826      C2827   1.402       .  A
C2827      C2828   1.405       .  A
C2827      H2832   1.081       .  S
C2828      C2829   1.411       .  A
C2828      H2833   1.085       .  S
C2829      C2830   1.401       .  A
C2830      H2834   1.081       .  S
C2835      C2836   1.400       .  A
C2835      C2840   1.393       .  A
C2835      H2841   1.083       .  S
C2836      C2837   1.408       .  A
C2837      C2838   1.395       .  A
C2837      H2842   1.083       .  S
C2838      C2839   1.401       .  A
C2838      H2843   1.083       .  S
C2839      C2840   1.407       .  A
C2840      H2844   1.083       .  S
C2845      C2846   1.410   1_556  A
C2845      C2850   1.401       .  A
C2845      H2851   1.083       .  S
C2846      C2847   1.403       .  A
C2847      C2848   1.402       .  A
C2847      H2852   1.083       .  S
C2848      C2849   1.411       .  A
C2848      H2853   1.083       .  S
C2849      C2850   1.404   1_554  A
C2850      H2854   1.083       .  S
C2855      C2856   1.399       .  A
C2855      C2860   1.402       .  A
C2855      H2861   1.083       .  S
C2856      C2857   1.404       .  A
C2857      C2858   1.396       .  A
C2857      H2862   1.084       .  S
C2858      C2859   1.403       .  A
C2858      H2863   1.083       .  S
C2859      C2860   1.411       .  A
C2860      H2864   1.083       .  S
C2865      C2866   1.408       .  A
C2865      C2870   1.396       .  A
C2865      H2871   1.082       .  S
C2866      C2867   1.402       .  A
C2867      C2868   1.395       .  A
C2867      H2872   1.083       .  S
C2868      C2869   1.407       .  A
C2868      H2873   1.083       .  S
C2869      C2870   1.400       .  A
C2870      H2874   1.083       .  S
C2875      C2876   1.406       .  A
C2875      C2880   1.398       .  A
C2875      H2881   1.084       .  S
C2876      C2877   1.399       .  A
C2877      C2878   1.402       .  A
C2877      H2882   1.083       .  S
C2878      C2879   1.411       .  A
C2878      H2883   1.083       .  S
C2879      C2880   1.402       .  A
C2880      H2884   1.083       .  S
C2885      C2886   1.409       .  A
C2885      C2890   1.395       .  A
C2885      H2891   1.083       .  S
C2886      C2887   1.401       .  A
C2887      C2888   1.397       .  A
C2887      H2892   1.083       .  S
C2888      C2889   1.409       .  A
C2888      H2893   1.083       .  S
C2889      C2890   1.401       .  A
C2890      H2894   1.083       .  S
C2895      C2896   1.409       .  A
C2895      C2900   1.401       .  A
C2895      H2901   1.083       .  S
C2896      C2897   1.404       .  A
C2897      C2898   1.402       .  A
C2897      H2902   1.083       .  S
C2898      C2899   1.410       .  A
C2898      H2903   1.083       .  S
C2899      C2900   1.404       .  A
C2900      H2904   1.083       .  S
C2905      C2906   1.405       .  A
C2905      C2910   1.395       .  A
C2905      H2911   1.084       .  S
C2906      C2907   1.401       .  A
C2907      C2908   1.405       .  A
C2907      H2912   1.083       .  S
C2908      C2909   1.411       .  A
C2908      H2913   1.083       .  S
C2909      C2910   1.402       .  A
C2910      H2914   1.083       .  S
C2915      C2916   1.403       .  A
C2915      C2920   1.395       .  A
C2915      H2921   1.083       .  S
C2916      C2917   1.412       .  A
C2917      C2918   1.403       .  A
C2917      H2922   1.083       .  S
C2918      C2919   1.400       .  A
C2918      H2923   1.083       .  S
C2919      C2920   1.403       .  A
C2920      H2924   1.084       .  S
C2925      C2926   1.400       .  A
C2925      C2930   1.394       .  A
C2925      H2931   1.083       .  S
C2926      C2927   1.408       .  A
C2927      C2928   1.396       .  A
C2927      H2932   1.083       .  S
C2928      C2929   1.401       .  A
C2928      H2933   1.083       .  S
C2929      C2930   1.408       .  A
C2930      H2934   1.082       .  S
C2935      C2936   1.409       .  A
C2935      C2940   1.398       .  A
C2935      H2941   1.083       .  S
C2936      C2937   1.403   1_455  A
C2937      C2938   1.399       .  A
C2937      H2942   1.083       .  S
C2938      C2939   1.409       .  A
C2938      H2943   1.083       .  S
C2939      C2940   1.402   1_655  A
C2940      H2944   1.083       .  S
C2945      C2946   1.401       .  A
C2945      C2950   1.396       .  A
C2945      H2951   1.083       .  S
C2946      C2947   1.410       .  A
C2947      C2948   1.398       .  A
C2947      H2952   1.083       .  S
C2948      C2949   1.401       .  A
C2948      H2953   1.083       .  S
C2949      C2950   1.409       .  A
C2950      H2954   1.083       .  S
C2955      C2956   1.411       .  A
C2955      C2960   1.403       .  A
C2955      H2961   1.083       .  S
C2956      C2957   1.400       .  A
C2957      C2958   1.392       .  A
C2957      H2962   1.083       .  S
C2958      C2959   1.404       .  A
C2958      H2963   1.084       .  S
C2959      C2960   1.400       .  A
C2960      H2964   1.083       .  S
C2965      C2966   1.409       .  A
C2965      C2970   1.395       .  A
C2965      H2971   1.083       .  S
C2966      C2967   1.399       .  A
C2967      C2968   1.395       .  A
C2967      H2972   1.083       .  S
C2968      C2969   1.410       .  A
C2968      H2973   1.083       .  S
C2969      C2970   1.400       .  A
C2970      H2974   1.083       .  S
C2975      C2976   1.404       .  A
C2975      C2980   1.400       .  A
C2975      H2981   1.083       .  S
C2976      C2977   1.409       .  A
C2977      C2978   1.401       .  A
C2977      H2982   1.083       .  S
C2978      C2979   1.404       .  A
C2978      H2983   1.083       .  S
C2979      C2980   1.409       .  A
C2980      H2984   1.083       .  S
C2985      C2986   1.401       .  A
C2985      C2990   1.403       .  A
C2985      H2991   1.083       .  S
C2986      C2987   1.405       .  A
C2987      C2988   1.390       .  A
C2987      H2992   1.084       .  S
C2988      C2989   1.398       .  A
C2988      H2993   1.083       .  S
C2989      C2990   1.409       .  A
C2990      H2994   1.083       .  S
C2995      C2996   1.408       .  A
C2995      C3000   1.395       .  A
C2995      H3001   1.082       .  S
C2996      C2997   1.403       .  A
C2997      C2998   1.397       .  A
C2997      H3002   1.083       .  S
C2998      C2999   1.407       .  A
C2998      H3003   1.083       .  S
C2999      C3000   1.399       .  A
C3000      H3004   1.083       .  S
C3005      C3006   1.404       .  A
C3005      C3010   1.395       .  A
C3005      H3011   1.084       .  S
C3006      C3007   1.400       .  A
C3007      C3008   1.403       .  A
C3007      H3012   1.083       .  S
C3008      C3009   1.410       .  A
C3008      H3013   1.083       .  S
C3009      C3010   1.403       .  A
C3010      H3014   1.083       .  S
C3015      C3016   1.400       .  A
C3015      C3020   1.396       .  A
C3015      H3021   1.083       .  S
C3016      C3017   1.408       .  A
C3017      C3018   1.396       .  A
C3017      H3022   1.083       .  S
C3018      C3019   1.401       .  A
C3018      H3023   1.083       .  S
C3019      C3020   1.410       .  A
C3020      H3024   1.083       .  S
C3025      C3026   1.410       .  A
C3025      C3030   1.401       .  A
C3025      H3031   1.083       .  S
C3026      C3027   1.405   1_655  A
C3027      C3028   1.401       .  A
C3027      H3032   1.083       .  S
C3028      C3029   1.409       .  A
C3028      H3033   1.083       .  S
C3029      C3030   1.404   1_455  A
C3030      H3034   1.083       .  S
C3035      C3036   1.402       .  A
C3035      C3040   1.405       .  A
C3035      H3041   1.083       .  S
C3036      C3037   1.405       .  A
C3037      C3038   1.393       .  A
C3037      H3042   1.084       .  S
C3038      C3039   1.400       .  A
C3038      H3043   1.083       .  S
C3039      C3040   1.409       .  A
C3040      H3044   1.083       .  S
C3045      C3046   1.408       .  A
C3045      C3050   1.393       .  A
C3045      H3051   1.083       .  S
C3046      C3047   1.403       .  A
C3047      C3048   1.399       .  A
C3047      H3052   1.083       .  S
C3048      C3049   1.408       .  A
C3048      H3053   1.083       .  S
C3049      C3050   1.400       .  A
C3050      H3054   1.083       .  S
C3055      C3056   1.404       .  A
C3055      C3060   1.404       .  A
C3055      H3061   1.083       .  S
C3056      C3057   1.409       .  A
C3057      C3058   1.402       .  A
C3057      H3062   1.083       .  S
C3058      C3059   1.405       .  A
C3058      H3063   1.083       .  S
C3059      C3060   1.410       .  A
C3060      H3064   1.083       .  S
C3065      C3066   1.412       .  A
C3065      C3070   1.405       .  A
C3065      H3071   1.083       .  S
C3066      C3067   1.403       .  A
C3067      C3068   1.396       .  A
C3067      H3072   1.083       .  S
C3068      C3069   1.404       .  A
C3068      H3073   1.084       .  S
C3069      C3070   1.401       .  A
C3070      H3074   1.083       .  S
C3075      C3076   1.410       .  A
C3075      C3080   1.406       .  A
C3075      H3081   1.083       .  S
C3076      C3077   1.400       .  A
C3077      C3078   1.394       .  A
C3077      H3082   1.083       .  S
C3078      C3079   1.407       .  A
C3078      H3083   1.083       .  S
C3079      C3080   1.403       .  A
C3080      H3084   1.083       .  S
C3085      C3086   1.408       .  A
C3085      C3090   1.395       .  A
C3085      H3091   1.083       .  S
C3086      C3087   1.400       .  A
C3087      C3088   1.394       .  A
C3087      H3092   1.083       .  S
C3088      C3089   1.408       .  A
C3088      H3093   1.083       .  S
C3089      C3090   1.400       .  A
C3090      H3094   1.083       .  S
C3095      C3096   1.408       .  A
C3095      C3100   1.398       .  A
C3095      H3101   1.083       .  S
C3096      C3097   1.402   1_655  A
C3097      C3098   1.398       .  A
C3097      H3102   1.083       .  S
C3098      C3099   1.409       .  A
C3098      H3103   1.083       .  S
C3099      C3100   1.403   1_455  A
C3100      H3104   1.083       .  S
C3105      C3106   1.408       .  A
C3105      C3110   1.397       .  A
C3105      H3111   1.083       .  S
C3106      C3107   1.402       .  A
C3107      C3108   1.396       .  A
C3107      H3112   1.083       .  S
C3108      C3109   1.408       .  A
C3108      H3113   1.083       .  S
C3109      C3110   1.402       .  A
C3110      H3114   1.083       .  S
C3115      C3116   1.405       .  A
C3115      C3120   1.400   1_655  A
C3115      H3121   1.083       .  S
C3116      C3117   1.408   1_655  A
C3117      C3118   1.400       .  A
C3117      H3122   1.083       .  S
C3118      C3119   1.404       .  A
C3118      H3123   1.083       .  S
C3119      C3120   1.408       .  A
C3120      H3124   1.083   1_455  S
C3125      C3126   1.403       .  A
C3125      C3130   1.391       .  A
C3125      H3131   1.084       .  S
C3126      C3127   1.402       .  A
C3127      C3128   1.403       .  A
C3127      H3132   1.083       .  S
C3128      C3129   1.409       .  A
C3128      H3133   1.083       .  S
C3129      C3130   1.401       .  A
C3130      H3134   1.083       .  S
C3135      C3136   1.399       .  A
C3135      C3140   1.395       .  A
C3135      H3141   1.084       .  S
C3136      C3137   1.406       .  A
C3137      C3138   1.392       .  A
C3137      H3142   1.083       .  S
C3138      C3139   1.400       .  A
C3138      H3143   1.083       .  S
C3139      C3140   1.410       .  A
C3140      H3144   1.082       .  S
C3145      C3146   1.410       .  A
C3145      C3150   1.404       .  A
C3145      H3151   1.083       .  S
C3146      C3147   1.404   1_556  A
C3147      C3148   1.403       .  A
C3147      H3152   1.083       .  S
C3148      C3149   1.410       .  A
C3148      H3153   1.083       .  S
C3149      C3150   1.405   1_554  A
C3150      H3154   1.083       .  S
C3155      C3156   1.412       .  A
C3155      C3160   1.405       .  A
C3155      H3161   1.083       .  S
C3156      C3157   1.403       .  A
C3157      C3158   1.395       .  A
C3157      H3162   1.083       .  S
C3158      C3159   1.404       .  A
C3158      H3163   1.084       .  S
C3159      C3160   1.401       .  A
C3160      H3164   1.083       .  S
C3165      C3166   1.408       .  A
C3165      C3170   1.394       .  A
C3165      H3171   1.083       .  S
C3166      C3167   1.399       .  A
C3167      C3168   1.394       .  A
C3167      H3172   1.083       .  S
C3168      C3169   1.409       .  A
C3168      H3173   1.082       .  S
C3169      C3170   1.400       .  A
C3170      H3174   1.084       .  S
C3175      C3176   1.404   1_554  A
C3175      C3180   1.401       .  A
C3175      H3181   1.083       .  S
C3176      C3177   1.409       .  A
C3177      C3178   1.401       .  A
C3177      H3182   1.083       .  S
C3178      C3179   1.404   1_556  A
C3178      H3183   1.083       .  S
C3179      C3180   1.409       .  A
C3180      H3184   1.083       .  S
C3185      C3186   1.398       .  A
C3185      C3190   1.401       .  A
C3185      H3191   1.083       .  S
C3186      C3187   1.405       .  A
C3187      C3188   1.393       .  A
C3187      H3192   1.084       .  S
C3188      C3189   1.400       .  A
C3188      H3193   1.083       .  S
C3189      C3190   1.410       .  A
C3190      H3194   1.083       .  S
C3195      C3196   1.401       .  A
C3195      C3200   1.396       .  A
C3195      H3201   1.083       .  S
C3196      C3197   1.408       .  A
C3197      C3198   1.397       .  A
C3197      H3202   1.083       .  S
C3198      C3199   1.401       .  A
C3198      H3203   1.083       .  S
C3199      C3200   1.408       .  A
C3200      H3204   1.083       .  S
C3205      C3206   1.409       .  A
C3205      C3210   1.401       .  A
C3205      H3211   1.083       .  S
C3206      C3207   1.404   1_455  A
C3207      C3208   1.402       .  A
C3207      H3212   1.083       .  S
C3208      C3209   1.409       .  A
C3208      H3213   1.083       .  S
C3209      C3210   1.405   1_655  A
C3210      H3214   1.083       .  S
C3215      C3216   1.399       .  A
C3215      C3220   1.402       .  A
C3215      H3221   1.083       .  S
C3216      C3217   1.404       .  A
C3217      C3218   1.395       .  A
C3217      H3222   1.084       .  S
C3218      C3219   1.402       .  A
C3218      H3223   1.083       .  S
C3219      C3220   1.410       .  A
C3220      H3224   1.083       .  S
C3225      C3226   1.399       .  A
C3225      C3230   1.394       .  A
C3225      H3231   1.083       .  S
C3226      C3227   1.408       .  A
C3227      C3228   1.395       .  A
C3227      H3232   1.083       .  S
C3228      C3229   1.401       .  A
C3228      H3233   1.083       .  S
C3229      C3230   1.408       .  A
C3230      H3234   1.082       .  S
C3235      C3236   1.402       .  A
C3235      C3240   1.400       .  A
C3235      H3241   1.083       .  S
C3236      C3237   1.410       .  A
C3237      C3238   1.401       .  A
C3237      H3242   1.083       .  S
C3238      C3239   1.403       .  A
C3238      H3243   1.083       .  S
C3239      C3240   1.410       .  A
C3240      H3244   1.083       .  S
C3245      C3246   1.400       .  A
C3245      C3250   1.403       .  A
C3245      H3251   1.083       .  S
C3246      C3247   1.405       .  A
C3247      C3248   1.393       .  A
C3247      H3252   1.084       .  S
C3248      C3249   1.401       .  A
C3248      H3253   1.083       .  S
C3249      C3250   1.411       .  A
C3250      H3254   1.083       .  S
C3255      C3256   1.410       .  A
C3255      C3260   1.402       .  A
C3255      H3261   1.083       .  S
C3256      C3257   1.401       .  A
C3257      C3258   1.395       .  A
C3257      H3262   1.083       .  S
C3258      C3259   1.405       .  A
C3258      H3263   1.084       .  S
C3259      C3260   1.400       .  A
C3260      H3264   1.083       .  S
