geometry optimzed in LAMMPS
_audit_creation_date              2020-12-01 
_audit_creation_method            'lammps2cif' 
_symmetry_space_group_name_H-M    'P1' 
_symmetry_Int_Tables_number       1 
_symmetry_cell_setting            triclinic 
loop_ 
_symmetry_equiv_pos_as_xyz 
  x,y,z 
_cell_length_a                    37.65381157 
_cell_length_b                    37.49412897609158 
_cell_length_c                    50.51214246156877 
_cell_angle_alpha                 89.92729831026737 
_cell_angle_beta                  90.10900344754467 
_cell_angle_gamma                 89.99715902909173 
loop_ 
_atom_site_label 
_atom_site_type_symbol 
_atom_site_fract_x 
_atom_site_fract_y 
_atom_site_fract_z 
_atom_site_charge 
C1          C  0.43762990  0.31341837  0.35612256     0.80200
N2          N  0.45213794  0.34175367  0.34338152    -0.78200
C3          C  0.43951976  0.35251043  0.31950211     0.82600
N4          N  0.41170518  0.33511903  0.30832615    -0.78100
C5          C  0.39686816  0.30674822  0.32081592     0.82700
N6          N  0.40987843  0.29597451  0.34462490    -0.79800
C7          C  0.39551046  0.35020416  0.14089769     0.80200
N8          N  0.37922125  0.32392585  0.15480283    -0.78200
C9          C  0.38831970  0.31699267  0.18026598     0.82600
N10         N  0.41368147  0.33684232  0.19226042    -0.78100
C11         C  0.43152373  0.36199555  0.17838682     0.82700
N12         N  0.42213276  0.36889625  0.15291516    -0.79800
C13         C  0.16940486  0.35273744  0.36023635     0.80200
N14         N  0.18733576  0.32615496  0.34781627    -0.78200
C15         C  0.17961263  0.31716633  0.32245741     0.82600
N16         N  0.15455976  0.33582177  0.30895286    -0.78100
C17         C  0.13553119  0.36155462  0.32134976     0.82700
N18         N  0.14320731  0.37013001  0.34682894    -0.79800
C19         C  0.43054205  0.11276895  0.14149578     0.80200
N20         N  0.40441939  0.13046976  0.15449818    -0.78200
C21         C  0.39427076  0.12051146  0.17923450     0.82600
N22         N  0.41084392  0.09272960  0.19143893    -0.78100
C23         C  0.43768712  0.07534520  0.17893832     0.82700
N24         N  0.44722208  0.08542183  0.15413723    -0.79800
C25         C  0.45577969  0.38298895  0.30602048     0.42400
N26         N  0.99189525  0.42413953  0.29526925     0.01300
C27         C  0.99020574  0.03104830  0.18250958    -0.06600
H28         H  0.00484579  0.39663506  0.16197652     0.06800
C29         C  0.12490404  0.40376022  0.21641904    -0.06900
Co30       Co  0.46837762  0.46642324  0.24866352     0.74200
N31         N  0.99723155  0.42602300  0.19837273    -0.26100
Co32       Co  0.03644765  0.46555945  0.19957704     0.74100
C33         C  0.11490516  0.38785431  0.19128796     0.42500
N34         N  0.09602571  0.42604157  0.27965717     0.00900
N35         N  0.07693153  0.42790043  0.20105814     0.01000
N36         N  0.44721487  0.02920125  0.21431486    -0.47000
H37         H  0.42129465  0.39444523  0.26929713     0.06800
N38         N  0.47047174  0.42765579  0.21927451     0.01300
N39         N  0.07553255  0.50523474  0.20187091     0.01000
C40         C  0.11455738  0.04581369  0.19235316     0.42600
N41         N  0.07093902  0.42586348  0.29786815    -0.25600
C42         C  0.44460531  0.02902337  0.28190266    -0.06500
N43         N  0.98589969  0.39887159  0.31305597    -0.46700
N44         N  0.08556643  0.02841371  0.18318699    -0.46900
C45         C  0.45403693  0.04406945  0.30747837     0.42400
N46         N  0.47086627  0.50573495  0.21909045     0.01300
N47         N  0.06910954  0.50324061  0.29835536    -0.25600
N48         N  0.46706175  0.42716143  0.27810556    -0.26100
N49         N  0.09444414  0.50400758  0.28035999     0.00900
H50         H  0.06012906  0.03424212  0.33451310     0.06800
H51         H  0.14653906  0.03522392  0.23029298     0.06800
N52         N  0.99615524  0.50324408  0.19942479    -0.26100
N53         N  0.09997306  0.42835406  0.22079229    -0.25800
N54         N  0.98997283  0.50146199  0.29587213     0.01300
C55         C  0.45555337  0.38604555  0.19249255     0.42700
C56         C  0.07835045  0.40034623  0.31567712    -0.07000
N57         N  0.09793563  0.50554922  0.22199555    -0.25800
H58         H  0.14796132  0.39887241  0.22870437     0.06800
N59         N  0.44609324  0.40295848  0.21490565    -0.47000
H60         H  0.06339736  0.39482918  0.33348228     0.06800
C61         C  0.10834256  0.04640371  0.30797212     0.42500
C62         C  0.44391430  0.40041551  0.28175397    -0.06500
Co63       Co  0.03043853  0.46366577  0.29742058     0.73800
N64         N  0.12070942  0.40155921  0.28401478    -0.46700
C65         C  0.45754277  0.04663790  0.19223222     0.42800
N66         N  0.98202770  0.02601818  0.31503937    -0.46700
Co67       Co  0.09762670  0.46592680  0.25079655     0.73900
C68         C  0.12340181  0.03063281  0.21803617    -0.07000
C69         C  0.99015316  0.40095885  0.18006995    -0.06600
N70         N  0.46783783  0.50477143  0.27827697    -0.26100
N71         N  0.08500453  0.40402247  0.18269582    -0.46900
H72         H  0.00604736  0.03723323  0.16526107     0.06800
C73         C  0.07584558  0.02915810  0.31701651    -0.07000
Cl74       Cl  0.03335409  0.46448941  0.24851329    -0.50000
C75         C  0.11100320  0.38389694  0.30613982     0.42500
H76         H  0.42191631  0.03468251  0.26942127     0.06800
N77         N  0.11887181  0.02974808  0.28569718    -0.46700
C78         C  0.14278289  0.32227241  0.14072341     0.80200
N79         N  0.12493588  0.34921839  0.15282331    -0.78200
C80         C  0.13401642  0.35942966  0.17770569     0.82600
N81         N  0.16052529  0.34234273  0.19067454    -0.78100
C82         C  0.17782010  0.31492326  0.17908003     0.82700
N83         N  0.16891297  0.30489499  0.15418156    -0.79800
C84         C  0.39735353  0.08053203  0.36095537     0.80200
N85         N  0.38023602  0.10657073  0.34729745    -0.78200
C86         C  0.38792567  0.11331107  0.32161382     0.82600
N87         N  0.41271275  0.09343187  0.30913146    -0.78100
C88         C  0.43132771  0.06836038  0.32257421     0.82700
N89         N  0.42333557  0.06162440  0.34835082    -0.79800
C90         C  0.13831551  0.11209970  0.35792427     0.80200
N91         N  0.11974030  0.08555650  0.34582897    -0.78200
C92         C  0.12835385  0.07489307  0.32097501     0.82600
N93         N  0.15551973  0.09095051  0.30800762    -0.78100
C94         C  0.17393847  0.11762164  0.31981157     0.82700
N95         N  0.16549719  0.12778151  0.34473959    -0.79800
C96         C  0.17473581  0.07608079  0.13875226     0.80200
N97         N  0.14840668  0.05831354  0.15176736    -0.78200
C98         C  0.13877828  0.06807546  0.17667781     0.82600
N99         N  0.15653138  0.09478601  0.18898504    -0.78100
C100        C  0.18202809  0.11336846  0.17606316     0.82700
N101        N  0.19130791  0.10373920  0.15113527    -0.79800
C102        C  0.36606914  0.29353181  0.19616836     0.42400
N103        N  0.32304453  0.25806075  0.20446170     0.01300
C104        C  0.21939962  0.25973312  0.31806740    -0.06600
H105        H  0.35490234  0.23929079  0.33487854     0.06800
C106        C  0.34852276  0.12598942  0.28094357    -0.06900
Co107      Co  0.28424945  0.27983692  0.25333024     0.74200
N108        N  0.32210677  0.25104974  0.30080048    -0.26100
Co109      Co  0.28315464  0.21174043  0.29947113     0.74100
C110        C  0.36452930  0.13619353  0.30601875     0.42500
N111        N  0.32279604  0.15278764  0.21872150     0.00900
N112        N  0.32162112  0.17178519  0.29745911     0.01000
N113        N  0.22031163  0.30206362  0.28614111    -0.47000
H114        H  0.35552546  0.32651554  0.23363931     0.06800
N115        N  0.32262387  0.27697925  0.28312338     0.01300
N116        N  0.24444792  0.17224715  0.29678907     0.01000
C117        C  0.20226217  0.13603824  0.30555215     0.42600
N118        N  0.32274428  0.17882274  0.20113630    -0.25600
C119        C  0.22105714  0.30623433  0.21892403    -0.06500
N120        N  0.34761039  0.26553035  0.18656326    -0.46700
N121        N  0.21948193  0.16521541  0.31445934    -0.46900
C122        C  0.20522006  0.29573990  0.19381977     0.42400
N123        N  0.24485805  0.27746891  0.28205460     0.01300
N124        N  0.24575768  0.17854932  0.20025646    -0.25600
N125        N  0.32335392  0.28058755  0.22451169    -0.26100
N126        N  0.24508249  0.15321325  0.21841224     0.00900
H127        H  0.21660006  0.18598076  0.16372252     0.06800
H128        H  0.21325412  0.10245534  0.26838462     0.06800
N129        N  0.24485741  0.25222072  0.30029340    -0.26100
N130        N  0.32206284  0.14928089  0.27738439    -0.25800
N131        N  0.24603084  0.25850754  0.20372316     0.01300
C132        C  0.36643150  0.28839260  0.30882410     0.42700
C133        C  0.34901689  0.17323277  0.18381504    -0.07000
N134        N  0.24480952  0.14909017  0.27710197    -0.25800
H135        H  0.35431700  0.10338824  0.26838464     0.06800
N136        N  0.34874759  0.29999385  0.28721647    -0.47000
H137        H  0.35491903  0.18983147  0.16691144     0.06800
C138        C  0.20428715  0.13822539  0.19099768     0.42500
C139        C  0.34992871  0.30377820  0.22115026    -0.06500
Co140      Co  0.28429570  0.21858321  0.20184040     0.73800
N141        N  0.34812727  0.12894128  0.21433162    -0.46700
C142        C  0.20277208  0.29245152  0.30821900     0.42800
N143        N  0.22196489  0.26607435  0.18540236    -0.46700
Co144      Co  0.28367128  0.15044792  0.24788302     0.73900
C145        C  0.21877126  0.12527382  0.28080965    -0.07000
C146        C  0.34883194  0.25602948  0.31801293    -0.06600
N147        N  0.24625573  0.28175213  0.22335568    -0.26100
N148        N  0.34609446  0.16426819  0.31552272    -0.46900
H149        H  0.21391958  0.24477913  0.33592890     0.06800
C150        C  0.22115170  0.17107164  0.18175800    -0.07000
Cl151      Cl  0.28366088  0.21515658  0.25063781    -0.50000
C152        C  0.36578245  0.14022506  0.19264432     0.42500
H153        H  0.21578464  0.32936686  0.23107533     0.06800
N154        N  0.22086174  0.12854756  0.21353573    -0.46700
N155        N  0.28969250  0.45821712  0.53769312    -0.36700
N156        N  0.32720430  0.50012256  0.49888656    -0.57200
N157        N  0.28628809  0.46463181  0.45750768    -0.36700
N158        N  0.25209967  0.41933288  0.49653955    -0.57200
C159        C  0.31466331  0.47428234  0.55276759     0.26900
C160        C  0.27787743  0.42958833  0.55135759     0.26900
C161        C  0.31291744  0.47933296  0.44323085     0.26900
C162        C  0.27042575  0.43986759  0.44205204     0.26900
C163        C  0.33749211  0.01829433  0.52005199     0.35500
C164        C  0.33647336  0.02088093  0.47733937     0.35500
C165        C  0.23526277  0.40627835  0.51804027     0.35500
C166        C  0.23107457  0.41214455  0.47555284     0.35500
C167        C  0.31885578  0.45568461  0.57630064    -0.22000
C168        C  0.29564156  0.42740234  0.57539823    -0.22000
C169        C  0.31387028  0.46378657  0.41832909    -0.22000
C170        C  0.28705351  0.43882209  0.41759893    -0.22000
C171        C  0.35505745  0.04937725  0.51309732    -0.23000
C172        C  0.35467945  0.05087431  0.48593319    -0.23000
C173        C  0.20378852  0.38991727  0.51068963    -0.23000
C174        C  0.20103254  0.39377931  0.48369705    -0.23000
C175        C  0.33162684  0.50683007  0.54668174    -0.18400
C176        C  0.24871223  0.40799686  0.54406428    -0.18400
C177        C  0.24004041  0.41979796  0.44901221    -0.18400
C178        C  0.33451479  0.50822597  0.45138806    -0.18400
H179        H  0.33633395  0.46222956  0.59262445     0.14500
H180        H  0.29160445  0.40798662  0.59097629     0.14500
H181        H  0.33169247  0.47013708  0.40221329     0.14500
H182        H  0.28021615  0.42216647  0.40086051     0.14500
H183        H  0.36733378  0.06862818  0.52617707     0.12800
H184        H  0.36663462  0.07153411  0.47391169     0.12800
H185        H  0.18488885  0.37656933  0.52342206     0.12800
H186        H  0.17956489  0.38390970  0.47145766     0.12800
H187        H  0.27914531  0.46811617  0.52017659     0.26100
H188        H  0.27770743  0.47270538  0.47607015     0.26100
N189        N  0.03621369  0.21610393  0.03828528    -0.36700
N190        N  0.49779950  0.17584828  0.99724225    -0.57200
N191        N  0.03618934  0.21805868  0.95746069    -0.36700
N192        N  0.07387545  0.25780504  0.99842651    -0.57200
C193        C  0.00988018  0.20140565  0.05283045     0.26900
C194        C  0.05159111  0.24162101  0.05331729     0.26900
C195        C  0.01174956  0.20186971  0.94192643     0.26900
C196        C  0.05324309  0.24255566  0.94244415     0.26900
C197        C  0.48735645  0.15662698  0.01846996     0.35500
C198        C  0.48665619  0.15792154  0.97565455     0.35500
C199        C  0.09309969  0.26687895  0.01998824     0.35500
C200        C  0.09301372  0.26816060  0.97718884     0.35500
C201        C  0.00854891  0.21773449  0.07743531    -0.22000
C202        C  0.03491966  0.24309574  0.07775115    -0.22000
C203        C  0.01372974  0.21592842  0.91652907    -0.22000
C204        C  0.03956246  0.24185740  0.91694292    -0.22000
C205        C  0.46897987  0.12654293  0.01045095    -0.23000
C206        C  0.46849700  0.12735162  0.98323288    -0.23000
C207        C  0.12432515  0.28355386  0.01247095    -0.23000
C208        C  0.12420340  0.28451230  0.98531558    -0.23000
C209        C  0.49223295  0.16748304  0.04489891    -0.18400
C210        C  0.08211607  0.26151352  0.04637119    -0.18400
C211        C  0.08255459  0.26362693  0.95053262    -0.18400
C212        C  0.49088916  0.16985878  0.94930146    -0.18400
H213        H  0.99088053  0.21149957  0.09367494     0.14500
H214        H  0.04147905  0.26026939  0.09425928     0.14500
H215        H  0.99841344  0.20809647  0.89934168     0.14500
H216        H  0.04797450  0.25773004  0.90017456     0.14500
H217        H  0.45683315  0.10645831  0.02289888     0.12800
H218        H  0.45588758  0.10788775  0.97050376     0.12800
H219        H  0.14503667  0.29391801  0.02519621     0.12800
H220        H  0.14489364  0.29564622  0.97296854     0.12800
H221        H  0.04512667  0.20726004  0.02002686     0.26100
H222        H  0.04236625  0.21123480  0.97675417     0.26100
N223        N  0.03010098  0.20546469  0.46257670    -0.36700
N224        N  0.06869738  0.16669444  0.50329272    -0.57200
N225        N  0.03006218  0.20784847  0.54290892    -0.36700
N226        N  0.98885287  0.24358592  0.50188440    -0.57200
C227        C  0.04530112  0.17919054  0.44822772     0.26900
C228        C  0.00427060  0.22002592  0.44742771     0.26900
C229        C  0.04630262  0.18289122  0.55807788     0.26900
C230        C  0.00355721  0.22232412  0.55745368     0.26900
C231        C  0.08836690  0.15794925  0.48193244     0.35500
C232        C  0.08903341  0.15995779  0.52474392     0.35500
C233        C  0.48400936  0.26721961  0.48128870     0.35500
C234        C  0.48553497  0.26824800  0.52403314     0.35500
C235        C  0.02884663  0.17696799  0.42368935    -0.22000
C236        C  0.00298803  0.20281768  0.42316297    -0.22000
C237        C  0.02984113  0.18132237  0.58257350    -0.22000
C238        C  0.00323961  0.20655399  0.58231738    -0.22000
C239        C  0.12127094  0.14522407  0.48978747    -0.23000
C240        C  0.12166464  0.14638816  0.51701606    -0.23000
C241        C  0.47032368  0.29996631  0.48878450    -0.23000
C242        C  0.47116728  0.30058469  0.51601261    -0.23000
C243        C  0.07606954  0.15996697  0.45559622    -0.18400
C244        C  0.48644046  0.25454380  0.45513788    -0.18400
C245        C  0.48906648  0.25671080  0.55044563    -0.18400
C246        C  0.07756405  0.16403277  0.55116436    -0.18400
H247        H  0.03547975  0.15923412  0.40754426     0.14500
H248        H  0.98576383  0.20880386  0.40656280     0.14500
H249        H  0.03713798  0.16469324  0.59924864     0.14500
H250        H  0.98623093  0.21310124  0.59884915     0.14500
H251        H  0.14257483  0.13587266  0.47722602     0.12800
H252        H  0.14340666  0.13816200  0.52967174     0.12800
H253        H  0.46037885  0.32090765  0.47599919     0.12800
H254        H  0.46193096  0.32212565  0.52847647     0.12800
H255        H  0.03891003  0.21502493  0.48061852     0.26100
H256        H  0.03846950  0.21646164  0.52448503     0.26100
N257        N  0.28443811  0.46123316  0.96053923    -0.36700
N258        N  0.32539155  0.42438217  0.00075143    -0.57200
N259        N  0.28800179  0.46616827  0.04119242    -0.36700
N260        N  0.25005016  0.50613712  0.00054489    -0.57200
C261        C  0.30962700  0.44503960  0.94572894     0.26900
C262        C  0.27087245  0.48805885  0.94575459     0.26900
C263        C  0.31062969  0.44766013  0.05691277     0.26900
C264        C  0.27000645  0.48946475  0.05668161     0.26900
C265        C  0.33514287  0.40454831  0.97963131     0.35500
C266        C  0.33788287  0.40755924  0.02251463     0.35500
C267        C  0.23588443  0.01367316  0.98053531     0.35500
C268        C  0.23807805  0.01617834  0.02332794     0.35500
C269        C  0.31201814  0.46175878  0.92128125    -0.22000
C270        C  0.28754192  0.48889227  0.92129758    -0.22000
C271        C  0.30678132  0.45931057  0.08283752    -0.22000
C272        C  0.28127177  0.48556506  0.08268327    -0.22000
C273        C  0.35431132  0.37506984  0.98793648    -0.23000
C274        C  0.35625155  0.37708189  0.01509409    -0.23000
C275        C  0.22066393  0.04589143  0.98765933    -0.23000
C276        C  0.22206132  0.04749689  0.01486534    -0.23000
C277        C  0.32886030  0.41411956  0.95294512    -0.18400
C278        C  0.23821327  0.00039120  0.95447592    -0.18400
C279        C  0.24298024  0.00588889  0.04999885    -0.18400
C280        C  0.33357788  0.41945082  0.04897067    -0.18400
H281        H  0.32924588  0.45477950  0.90495853     0.14500
H282        H  0.28218998  0.50687004  0.90498456     0.14500
H283        H  0.32063036  0.44964270  0.10021633     0.14500
H284        H  0.27185102  0.49989482  0.09988323     0.14500
H285        H  0.36605795  0.35454577  0.97571368     0.12800
H286        H  0.36962078  0.35819532  0.02790620     0.12800
H287        H  0.20941434  0.06589689  0.97464886     0.12800
H288        H  0.21216102  0.06905361  0.02702175     0.12800
H289        H  0.27499834  0.45271550  0.97877339     0.26100
H290        H  0.28419643  0.46220109  0.02122217     0.26100
C291        C  0.39335349  0.35579192  0.85882383     0.80200
N292        N  0.37786501  0.32837570  0.84552730    -0.78200
C293        C  0.38871046  0.31949672  0.82081556     0.82600
N294        N  0.41536577  0.33815379  0.80918970    -0.78100
C295        C  0.43062234  0.36600220  0.82208732     0.82700
N296        N  0.41932831  0.37490003  0.84672098    -0.79800
C297        C  0.42686464  0.09765675  0.85959833     0.80200
N298        N  0.44237415  0.06995580  0.84675107    -0.78200
C299        C  0.43307483  0.06140952  0.82163953     0.82600
N300        N  0.40807265  0.08098942  0.80900505    -0.78100
C301        C  0.39094751  0.10760217  0.82179758     0.82700
N302        N  0.40074524  0.11629114  0.84688745    -0.79800
C303        C  0.18835706  0.06397655  0.85708809     0.80200
N304        N  0.16110780  0.04706059  0.84450526    -0.78200
C305        C  0.14987529  0.05826930  0.82027975     0.82600
N306        N  0.16614741  0.08638445  0.80838316    -0.78100
C307        C  0.19349137  0.10313451  0.82067607     0.82700
N308        N  0.20406734  0.09202606  0.84492841    -0.79800
C309        C  0.15472315  0.32791913  0.86176787     0.80200
N310        N  0.18050048  0.30943122  0.84871585    -0.78200
C311        C  0.18716676  0.31577445  0.82270724     0.82600
N312        N  0.16755943  0.34043989  0.80949317    -0.78100
C313        C  0.14303347  0.36024757  0.82254761     0.82700
N314        N  0.13633047  0.35348036  0.84844932    -0.79800
C315        C  0.15016246  0.09806180  0.63975967     0.80200
N316        N  0.17680045  0.11581695  0.65251716    -0.78200
C317        C  0.18468266  0.10842262  0.67820076     0.82600
N318        N  0.16527688  0.08360546  0.69138706    -0.78100
C319        C  0.13975033  0.06471891  0.67862091     0.82700
N320        N  0.13192886  0.07242110  0.65302841    -0.79800
C321        C  0.39413804  0.06564913  0.64077469     0.80200
N322        N  0.37704574  0.09253858  0.65338394    -0.78200
C323        C  0.38614644  0.10209170  0.67830380     0.82600
N324        N  0.41288986  0.08457297  0.69095752    -0.78100
C325        C  0.42988092  0.05715329  0.67867317     0.82700
N326        N  0.42018806  0.04763583  0.65373446    -0.79800
C327        C  0.37039369  0.29103268  0.80635289     0.42400
N328        N  0.33260450  0.25055921  0.79636030     0.01300
C329        C  0.33305310  0.14695899  0.68216309    -0.06600
H330        H  0.32095175  0.28072737  0.66375928     0.06800
C331        C  0.20205624  0.27823157  0.71813319    -0.06900
Co332      Co  0.35399949  0.21112361  0.74743365     0.74200
N333        N  0.32750427  0.24989116  0.69967581    -0.26100
Co334      Co  0.28688530  0.21176052  0.70025837     0.74100
C335        C  0.21361019  0.29509126  0.69370186     0.42500
N336        N  0.22742010  0.25196628  0.78053163     0.00900
N337        N  0.24800506  0.25123232  0.70213337     0.01000
N338        N  0.37589628  0.14733351  0.71373446    -0.47000
H339        H  0.40421465  0.27938564  0.76947317     0.06800
N340        N  0.35221502  0.25004137  0.71826263     0.01300
N341        N  0.24610767  0.17346466  0.70198095     0.01000
C342        C  0.20858962  0.13189299  0.69328023     0.42600
N343        N  0.25243759  0.25142708  0.79889133    -0.25600
C344        C  0.37798237  0.14655304  0.78092722    -0.06500
N345        N  0.34037372  0.27475460  0.81455977    -0.46700
N346        N  0.23731579  0.14945417  0.68374913    -0.46900
C347        C  0.36816814  0.13139214  0.80635225     0.42400
N348        N  0.35163867  0.17226819  0.71803531     0.01300
N349        N  0.25214236  0.17434965  0.79887680    -0.25600
N350        N  0.35603706  0.24977669  0.77695047    -0.26100
N351        N  0.22657087  0.17416040  0.78095597     0.00900
H352        H  0.26164359  0.14311110  0.83395112     0.06800
H353        H  0.17680547  0.14311538  0.73107202     0.06800
N354        N  0.32631167  0.17263798  0.69989616    -0.26100
N355        N  0.22481797  0.25130910  0.72172141    -0.25800
N356        N  0.33174680  0.17325802  0.79677824     0.01300
C357        C  0.36781196  0.29189876  0.69199997     0.42700
C358        C  0.24447410  0.27596346  0.81734763    -0.07000
N359        N  0.22374419  0.17365900  0.72209736    -0.25800
H360        H  0.17963753  0.28447593  0.73065862     0.06800
N361        N  0.37682863  0.27458863  0.71434972    -0.47000
H362        H  0.25891824  0.28039905  0.83557634     0.06800
C363        C  0.21268579  0.13229592  0.80773649     0.42500
C364        C  0.38088255  0.27467549  0.78143997    -0.06500
Co365      Co  0.29229218  0.21247348  0.79822474     0.73800
N366        N  0.20247204  0.27600051  0.78530677    -0.46700
C367        C  0.36582639  0.13027033  0.69151301     0.42800
N368        N  0.33972984  0.14959574  0.81543183    -0.46700
Co369      Co  0.22511090  0.21275051  0.75129883     0.73900
C370        C  0.19955923  0.14797961  0.71854023    -0.07000
C371        C  0.33545981  0.27525647  0.68181375    -0.06600
N372        N  0.35431916  0.17251376  0.77681378    -0.26100
N373        N  0.24210494  0.27700966  0.68466837    -0.46900
H374        H  0.31769164  0.14156969  0.66449595     0.06800
C375        C  0.24565650  0.14874583  0.81667719    -0.07000
Cl376      Cl  0.28956519  0.21202026  0.74930565    -0.50000
C377        C  0.21161555  0.29258120  0.80798510     0.42500
H378        H  0.40089872  0.14103833  0.76871375     0.06800
N379        N  0.20226383  0.14933126  0.78551739    -0.46700
C380        C  0.42949108  0.32698299  0.64159064     0.80200
N381        N  0.40270511  0.30826240  0.65322120    -0.78200
C382        C  0.39239505  0.31566175  0.67832422     0.82600
N383        N  0.40967665  0.34114379  0.69229152    -0.78100
C384        C  0.43516857  0.36106040  0.68051784     0.82700
N385        N  0.44498918  0.35383960  0.65532061    -0.79800
C386        C  0.18785187  0.36167906  0.64281658     0.80200
N387        N  0.16064764  0.37809124  0.65550528    -0.78200
C388        C  0.15110496  0.36817982  0.68026534     0.82600
N389        N  0.16852556  0.34124963  0.69246781    -0.78100
C390        C  0.19573886  0.32454064  0.68018519     0.82700
N391        N  0.20542297  0.33475971  0.65543347    -0.79800
C392        C  0.45689801  0.38490594  0.69644884     0.42400
N393        N  0.49953027  0.42092066  0.70457670     0.01300
C394        C  0.10373979  0.41789462  0.81728758    -0.06600
H395        H  0.46921566  0.43559714  0.83580398     0.06800
C396        C  0.47194391  0.04855948  0.78114647    -0.06900
Co397      Co  0.04050028  0.39849356  0.75149029     0.74200
N398        N  0.50099795  0.42631813  0.80093689    -0.26100
Co399      Co  0.04052557  0.46604016  0.79802385     0.74100
C400        C  0.45593593  0.03793668  0.80610754     0.42500
N401        N  0.50003643  0.02407774  0.71931199     0.00900
N402        N  0.50050989  0.00406423  0.79818218     0.01000
N403        N  0.10361156  0.37587756  0.78521018    -0.47000
H404        H  0.46868556  0.35158954  0.73362280     0.06800
N405        N  0.50102689  0.40073957  0.78300776     0.01300
N406        N  0.07692787  0.00498694  0.79881270     0.01000
C407        C  0.12021015  0.04034660  0.80692527     0.42600
N408        N  0.50091284  0.99845637  0.70141837    -0.25600
C409        C  0.10536930  0.37459133  0.71838991    -0.06500
N410        N  0.47475460  0.41330148  0.68682541    -0.46700
N411        N  0.10286292  0.01126841  0.81599414    -0.46900
C412        C  0.12192255  0.38598926  0.69384293     0.42400
N413        N  0.07957259  0.40086474  0.78057278     0.01300
N414        N  0.07489325  0.00051574  0.70217798    -0.25600
N415        N  0.49994221  0.39812820  0.72449143    -0.26100
N416        N  0.07564184  0.02550059  0.72055067     0.00900
H417        H  0.10443986  0.99317861  0.66595576     0.06800
H418        H  0.10827497  0.07445485  0.77010269     0.06800
N419        N  0.07915395  0.42593204  0.79890149    -0.26100
N420        N  0.49949605  0.02650749  0.77804864    -0.25800
N421        N  0.07883820  0.42103508  0.70238798     0.01300
C422        C  0.45883096  0.38668249  0.80929757     0.42700
C423        C  0.47527938  0.00443356  0.68349497    -0.07000
N424        N  0.07615715  0.02841521  0.77928029    -0.25800
H425        H  0.46544690  0.07086195  0.76842734     0.06800
N426        N  0.47621241  0.37640349  0.78729403    -0.47000
H427        H  0.47022990  0.98854152  0.66603953     0.06800
C428        C  0.11680876  0.04047298  0.69353969     0.42500
C429        C  0.47370570  0.37455447  0.72120113    -0.06500
Co430      Co  0.03990123  0.46020934  0.70035281     0.73800
N431        N  0.47476984  0.04789974  0.71459201    -0.46700
C432        C  0.12029780  0.38502646  0.80779685     0.42800
N433        N  0.10417374  0.41481454  0.68482481    -0.46700
Co434      Co  0.03711782  0.02721219  0.75002663     0.73900
C435        C  0.10264885  0.05179168  0.78267790    -0.07000
C436        C  0.47515354  0.41973060  0.81850900    -0.06600
N437        N  0.07884159  0.39774760  0.72201131    -0.26100
N438        N  0.47546287  0.01069930  0.81595846    -0.46900
H439        H  0.10832950  0.43233260  0.83550035     0.06800
C440        C  0.09970372  0.00800839  0.68396036    -0.05000
Cl441      Cl  0.04002869  0.46314979  0.74919783    -0.50000
C442        C  0.45801026  0.03714084  0.69236509     0.42500
H443        H  0.11146426  0.35198102  0.73091496     0.06800
N444        N  0.10015636  0.05005270  0.71603614    -0.46700
C445        C  0.24479457  0.04376857  0.91868285    -0.05800
C446        C  0.22213230  0.02078136  0.93239820     0.00100
C447        C  0.18778457  0.01370043  0.92239449    -0.08500
C448        C  0.17762664  0.02957719  0.89836933    -0.05900
C449        C  0.20080698  0.05147020  0.88367093     0.00100
C450        C  0.23508782  0.05935797  0.89442990    -0.08400
C451        C  0.26202221  0.08346114  0.88082753     0.62000
H452        H  0.27101515  0.04826910  0.92689052     0.12700
H453        H  0.15131377  0.02387919  0.89072968     0.12700
C454        C  0.16131452  0.98871880  0.93546515     0.62200
F455        F  0.29399981  0.08494183  0.89437374    -0.23000
F456        F  0.24879503  0.11782370  0.87966831    -0.20300
F457        F  0.26926397  0.07100672  0.85562988    -0.20000
F458        F  0.13087596  0.00756617  0.94163137    -0.20000
F459        F  0.17387505  0.97313489  0.95844306    -0.20300
F460        F  0.15259288  0.96176880  0.91794984    -0.23000
C461        C  0.38285029  0.39693632  0.92763818    -0.05800
C462        C  0.34608060  0.39343718  0.93121664     0.00100
C463        C  0.32597362  0.37340659  0.91273764    -0.08500
C464        C  0.34276084  0.36108319  0.88970924    -0.05900
C465        C  0.37909354  0.36683190  0.88502995     0.00100
C466        C  0.40004556  0.38297489  0.90516818    -0.08400
C467        C  0.44029840  0.38456915  0.90365302     0.62000
H468        H  0.39789451  0.41161964  0.94232098     0.12700
H469        H  0.32713060  0.34762072  0.87474731     0.12700
C470        C  0.28709520  0.36460934  0.91738979     0.62200
F471        F  0.45519081  0.39322098  0.92789586    -0.23000
F472        F  0.45072982  0.41012455  0.88554013    -0.20300
F473        F  0.45358377  0.35164167  0.89625880    -0.20000
F474        F  0.26691897  0.39531394  0.91731901    -0.20000
F475        F  0.28346626  0.34768179  0.94156233    -0.20300
F476        F  0.27366958  0.34216856  0.89802604    -0.23000
C477        C  0.13814093  0.14975029  0.61069193    -0.05800
C478        C  0.13551449  0.11266660  0.61451981     0.00100
C479        C  0.11622777  0.09199339  0.59574308    -0.08500
C480        C  0.09795906  0.10978079  0.57521296    -0.05900
C481        C  0.09892354  0.14704417  0.57263453     0.00100
C482        C  0.12034569  0.16733534  0.59002188    -0.08400
C483        C  0.12450411  0.20742945  0.58685171     0.62000
H484        H  0.15303296  0.16542912  0.62484314     0.12700
H485        H  0.08205118  0.09474247  0.56124495     0.12700
C486        C  0.11481570  0.05150896  0.59693935     0.62200
F487        F  0.14966576  0.22114180  0.60408555    -0.23000
F488        F  0.09267245  0.22434647  0.59194371    -0.20300
F489        F  0.13517696  0.21528985  0.56133072    -0.20000
F490        F  0.09141570  0.04072582  0.61642455    -0.20000
F491        F  0.14822523  0.03785872  0.60223820    -0.20300
F492        F  0.10346539  0.03711704  0.57313560    -0.23000
C493        C  0.42315277  0.29079306  0.60100413    -0.05800
C494        C  0.44452096  0.31421285  0.61595134     0.00100
C495        C  0.48012093  0.32103092  0.60737997    -0.08500
C496        C  0.49282334  0.30270844  0.58504925    -0.05900
C497        C  0.47190052  0.27792945  0.57151948     0.00100
C498        C  0.43640504  0.27207764  0.57914317    -0.08400
C499        C  0.41300063  0.24550936  0.56460112     0.62000
H500        H  0.39597999  0.28624406  0.60707142     0.12700
H501        H  0.00713111  0.30998744  0.57020584     0.12700
C502        C  0.50565464  0.34593193  0.62178612     0.62200
F503        F  0.37987201  0.24233136  0.57620714    -0.23000
F504        F  0.42870762  0.21217396  0.56472980    -0.20300
F505        F  0.40825889  0.25651562  0.53871436    -0.20000
F506        F  0.51152130  0.33372667  0.64728128    -0.20000
F507        F  0.49187308  0.38011485  0.62239937    -0.20300
F508        F  0.01552968  0.36586613  0.58945492    -0.23000
C509        C  0.10081716  0.31762954  0.92534998    -0.05800
C510        C  0.10447988  0.28088878  0.92965150     0.00100
C511        C  0.12943381  0.26126971  0.91474540    -0.08500
C512        C  0.14727221  0.27841993  0.89394235    -0.05900
C513        C  0.14136132  0.31460058  0.88782355     0.00100
C514        C  0.11958512  0.33517506  0.90505835    -0.08400
C515        C  0.11668202  0.37543418  0.90287348     0.62000
H516        H  0.08266451  0.33242901  0.93782064     0.12700
H517        H  0.16444660  0.26275906  0.88134317     0.12700
C518        C  0.13622084  0.22196708  0.92005546     0.62200
F519        F  0.10489940  0.39037977  0.92634241    -0.23000
F520        F  0.09296169  0.38462182  0.88309058    -0.20300
F521        F  0.14966303  0.38981667  0.89737122    -0.20000
F522        F  0.10759280  0.20208117  0.91138241    -0.20000
F523        F  0.14118287  0.21612195  0.94684820    -0.20300
F524        F  0.16629542  0.21002155  0.90708212    -0.23000
C525        C  0.49035787  0.12103563  0.91671777    -0.05800
C526        C  0.47235243  0.14974066  0.92802500     0.00100
C527        C  0.43788370  0.15854850  0.91921558    -0.08500
C528        C  0.42327061  0.13925889  0.89793882    -0.05900
C529        C  0.44213019  0.11173259  0.88504481     0.00100
C530        C  0.47607546  0.10147395  0.89546981    -0.08400
C531        C  0.49833155  0.07105003  0.88436288     0.62000
H532        H  0.51643901  0.11470444  0.92448915     0.12700
H533        H  0.39722699  0.14659294  0.89066552     0.12700
C534        C  0.41723015  0.18892838  0.93175377     0.62200
F535        F  0.02058345  0.06077694  0.90635638    -0.23000
F536        F  0.50911833  0.07917958  0.85889352    -0.20300
F537        F  0.47889370  0.03973824  0.88450722    -0.20000
F538        F  0.43470434  0.22080082  0.92733200    -0.20000
F539        F  0.41426089  0.18341812  0.95872687    -0.20300
F540        F  0.38328042  0.19179200  0.92140059    -0.23000
C541        C  0.38669856  0.02325913  0.57224907    -0.05800
C542        C  0.34986159  0.02537444  0.56834717     0.00100
C543        C  0.32864104  0.04467054  0.58639644    -0.08500
C544        C  0.34456765  0.05806332  0.60938004    -0.05900
C545        C  0.38102144  0.05371536  0.61451384     0.00100
C546        C  0.40296364  0.03800817  0.59485973    -0.08400
C547        C  0.44316725  0.03716346  0.59723836     0.62000
H548        H  0.40250902  0.00915249  0.55774022     0.12700
H549        H  0.32808987  0.07101482  0.62403738     0.12700
C550        C  0.28930154  0.05109387  0.58145046     0.62200
F551        F  0.45902232  0.03026572  0.57306204    -0.23000
F552        F  0.45331557  0.01074157  0.61478639    -0.20300
F553        F  0.45567506  0.06980386  0.60599897    -0.20000
F554        F  0.27071513  0.01941496  0.58300115    -0.20000
F555        F  0.28456131  0.06582273  0.55657990    -0.20300
F556        F  0.27490519  0.07434226  0.59980745    -0.23000
C557        C  0.20479027  0.41487181  0.57917646    -0.05800
C558        C  0.22805940  0.39190923  0.56601558     0.00100
C559        C  0.23463208  0.35752343  0.57638495    -0.08500
C560        C  0.22003521  0.34865691  0.60107155    -0.05900
C561        C  0.19867625  0.37261666  0.61552036     0.00100
C562        C  0.18973816  0.40612492  0.60376403    -0.08400
C563        C  0.16609993  0.43375121  0.61704579     0.62000
H564        H  0.20004084  0.44083417  0.57042119     0.12700
H565        H  0.22597375  0.32258210  0.60924995     0.12700
C566        C  0.25700362  0.32940599  0.56272600     0.62200
F567        F  0.16247502  0.46433601  0.60190373    -0.23000
F568        F  0.18069137  0.44367946  0.64108634    -0.20300
F569        F  0.13237119  0.42002800  0.62073617    -0.20000
F570        F  0.28646434  0.32182907  0.57813350    -0.20000
F571        F  0.26840230  0.33967354  0.53788815    -0.20300
F572        F  0.23708809  0.29861077  0.55990381    -0.23000
C573        C  0.22697981  0.06585728  0.10962800    -0.05800
C574        C  0.19022605  0.06138784  0.11377782     0.00100
C575        C  0.17018962  0.04221653  0.09463046    -0.08500
C576        C  0.18832456  0.02449744  0.07407530    -0.05900
C577        C  0.22528382  0.02717992  0.07116918     0.00100
C578        C  0.24469556  0.04987085  0.08821426    -0.08400
C579        C  0.28378172  0.05768944  0.08348651     0.62000
H580        H  0.24218015  0.08140448  0.12368369     0.12700
H581        H  0.17374869  0.00818476  0.06009496     0.12700
C582        C  0.12989299  0.04209449  0.09479463     0.62200
F583        F  0.29659215  0.08342900  0.10066139    -0.23000
F584        F  0.28845327  0.07006670  0.05791602    -0.20300
F585        F  0.30371561  0.02714030  0.08702913    -0.20000
F586        F  0.11754485  0.07643239  0.09875154    -0.20000
F587        F  0.11737680  0.02003322  0.11462397    -0.20300
F588        F  0.11617677  0.03011261  0.07095809    -0.23000
C589        C  0.11126303  0.09918050  0.40156447    -0.05800
C590        C  0.12786345  0.12424469  0.38487711     0.00100
C591        C  0.13135516  0.16021191  0.39362318    -0.08500
C592        C  0.11638690  0.16973748  0.41807445    -0.05900
C593        C  0.09784861  0.14515367  0.43369129     0.00100
C594        C  0.09579957  0.10908513  0.42578539    -0.08400
C595        C  0.07613767  0.08158709  0.44227030     0.62000
H596        H  0.10945190  0.07174023  0.39505080     0.12700
H597        H  0.11737720  0.19715640  0.42476933     0.12700
C598        C  0.14913432  0.18913816  0.37713330     0.62200
F599        F  0.07639269  0.04825447  0.43048699    -0.23000
F600        F  0.04114959  0.09188498  0.44546683    -0.20300
F601        F  0.09201348  0.07847973  0.46684637    -0.20000
F602        F  0.13337867  0.19118549  0.35240847    -0.20000
F603        F  0.18493721  0.18171727  0.37452965    -0.20300
F604        F  0.14624968  0.22243325  0.38872257    -0.23000
C605        C  0.39964531  0.03758584  0.39856019    -0.05800
C606        C  0.38313651  0.06765263  0.38705316     0.00100
C607        C  0.35183157  0.08152022  0.39943252    -0.08500
C608        C  0.33652314  0.06212392  0.42036407    -0.05900
C609        C  0.35191406  0.03092694  0.43024558     0.00100
C610        C  0.38496570  0.01933848  0.42021687    -0.08400
C611        C  0.40538206  0.98743840  0.43086633     0.62000
H612        H  0.42409860  0.02736880  0.39021664     0.12700
H613        H  0.31164754  0.07073534  0.42900334     0.12700
C614        C  0.33365476  0.11604260  0.39106090     0.62200
F615        F  0.40565773  0.96083394  0.41193961    -0.23000
F616        F  0.39130009  0.97361197  0.45393198    -0.20300
F617        F  0.44003462  0.99750720  0.43614458    -0.20000
F618        F  0.31705738  0.11162320  0.36683867    -0.20000
F619        F  0.35830682  0.14333905  0.38964951    -0.20300
F620        F  0.30790583  0.12647672  0.40901361    -0.23000
C621        C  0.10321688  0.31452265  0.07133669    -0.05800
C622        C  0.10343089  0.27731856  0.06820516     0.00100
C623        C  0.12136563  0.25583194  0.08702470    -0.08500
C624        C  0.13367177  0.27177928  0.11030368    -0.05900
C625        C  0.13130445  0.30871666  0.11450078     0.00100
C626        C  0.11824932  0.33086948  0.09381444    -0.08400
C627        C  0.12161634  0.37125182  0.09465483     0.62000
H628        H  0.09056908  0.33064594  0.05620814     0.12700
H629        H  0.14516891  0.25484418  0.12548328     0.12700
C630        C  0.12858731  0.21623874  0.08369124     0.62200
F631        F  0.11422148  0.38647903  0.07026430    -0.23000
F632        F  0.15601165  0.38056150  0.10145904    -0.20300
F633        F  0.09824056  0.38544698  0.11286214    -0.20000
F634        F  0.11919749  0.20337387  0.05903492    -0.20000
F635        F  0.11017330  0.19737706  0.10278386    -0.20300
F636        F  0.16456168  0.21005149  0.08705605    -0.23000
C637        C  0.47680572  0.11204824  0.10646660    -0.05800
C638        C  0.44308788  0.12427874  0.11460495     0.00100
C639        C  0.42355825  0.14704920  0.09710825    -0.08500
C640        C  0.43971951  0.15838529  0.07341493    -0.05900
C641        C  0.47418085  0.14802871  0.06668135     0.00100
C642        C  0.49273682  0.12365992  0.08287746    -0.08400
C643        C  0.03028430  0.11802157  0.07652486     0.62000
H644        H  0.49164772  0.09434529  0.11928785     0.12700
H645        H  0.42637075  0.17720288  0.06050385     0.12700
C646        C  0.38627550  0.16027556  0.10300395     0.62200
F647        F  0.04303313  0.09105682  0.09268847    -0.23000
F648        F  0.05210823  0.14737541  0.07945601    -0.20300
F649        F  0.03202853  0.10618808  0.05062971    -0.20000
F650        F  0.38730123  0.18419230  0.12376148    -0.20000
F651        F  0.36444778  0.13181356  0.10920743    -0.20300
F652        F  0.37132456  0.17774206  0.08152151    -0.23000
C653        C  0.17921035  0.40484997  0.38966305    -0.05800
C654        C  0.18336885  0.36788811  0.38551340     0.00100
C655        C  0.20349445  0.34773095  0.40413124    -0.08500
C656        C  0.22117643  0.36582165  0.42463130    -0.05900
C657        C  0.21882718  0.40287963  0.42753660     0.00100
C658        C  0.19661808  0.42278786  0.41039057    -0.08400
C659        C  0.19163814  0.46280720  0.41368351     0.62000
H660        H  0.16361290  0.42019838  0.37569856     0.12700
H661        H  0.23785682  0.35118448  0.43835949     0.12700
C662        C  0.20668727  0.30740429  0.40277407     0.62200
F663        F  0.16527337  0.47593339  0.39718089    -0.23000
F664        F  0.22279839  0.48045732  0.40765844    -0.20300
F665        F  0.18215467  0.47048622  0.43949184    -0.20000
F666        F  0.23011113  0.29788131  0.38296743    -0.20000
F667        F  0.17375571  0.29242126  0.39792851    -0.20300
F668        F  0.21928492  0.29326844  0.42633247    -0.23000
C669        C  0.33414645  0.37024433  0.08159106    -0.05800
C670        C  0.35204605  0.39914445  0.07032617     0.00100
C671        C  0.38567450  0.40915010  0.08018798    -0.08500
C672        C  0.39977706  0.39044752  0.10191617    -0.05900
C673        C  0.38092817  0.36292552  0.11479962     0.00100
C674        C  0.34770151  0.35168097  0.10367952    -0.08400
C675        C  0.32552214  0.32119215  0.11481080     0.62000
H676        H  0.30854318  0.36322774  0.07329505     0.12700
H677        H  0.42536368  0.39845245  0.10964338     0.12700
C678        C  0.40602873  0.44023088  0.06834439     0.62200
F679        F  0.29623296  0.31376559  0.09911522    -0.23000
F680        F  0.31304970  0.33000838  0.13969883    -0.20300
F681        F  0.34569654  0.29040628  0.11608605    -0.20000
F682        F  0.38652915  0.47124805  0.07101727    -0.20000
F683        F  0.41223507  0.43397638  0.04179521    -0.20300
F684        F  0.43849534  0.44532126  0.08071063    -0.23000
C685        C  0.49546799  0.29395878  0.41696202    -0.05800
C686        C  0.47125879  0.27557081  0.43291210     0.00100
C687        C  0.43566529  0.27167779  0.42457857    -0.08500
C688        C  0.42571877  0.28577051  0.39984264    -0.05900
C689        C  0.45041759  0.30241926  0.38290258     0.00100
C690        C  0.48615426  0.30680327  0.39174902    -0.08400
C691        C  0.51523366  0.32278979  0.37454181     0.62000
H692        H  0.52261177  0.29606877  0.42393634     0.12700
H693        H  0.39851489  0.28289591  0.39322126     0.12700
C694        C  0.40885325  0.25127210  0.44114894     0.62200
F695        F  0.54849014  0.31955795  0.38609340    -0.23000
F696        F  0.50894188  0.35872557  0.37064045    -0.20300
F697        F  0.51637772  0.30538148  0.35042956    -0.20000
F698        F  0.40568120  0.26690310  0.46578763    -0.20000
F699        F  0.89990511  0.21293870  0.41898203    -0.20300
F700        F  0.37553523  0.25094317  0.42950037    -0.23000
C701        C  0.43319423  0.81535148  0.35721455     0.80200
N702        N  0.44867340  0.84327365  0.34450905    -0.78200
C703        C  0.43762865  0.85336061  0.32000504     0.82600
N704        N  0.41042825  0.83571277  0.30819247    -0.78100
C705        C  0.39476410  0.80777152  0.32064225     0.82700
N706        N  0.40627883  0.79766318  0.34494769    -0.79800
C707        C  0.40213122  0.84692080  0.14000036     0.80200
N708        N  0.38406564  0.82174364  0.15383755    -0.78200
C709        C  0.39184576  0.81500148  0.17956850     0.82600
N710        N  0.41717892  0.83452097  0.19197879    -0.78100
C711        C  0.43632218  0.85893318  0.17825143     0.82700
N712        N  0.42853558  0.86528096  0.15243020    -0.79800
C713        C  0.17194180  0.85403640  0.35804192     0.80200
N714        N  0.18977007  0.82770562  0.34525081    -0.78200
C715        C  0.18077471  0.81797697  0.32028035     0.82600
N716        N  0.15453742  0.83575531  0.30740726    -0.78100
C717        C  0.13565604  0.86127185  0.32019598     0.82700
N718        N  0.14458970  0.87047774  0.34530070    -0.79800
C719        C  0.43021105  0.61126145  0.13963011     0.80200
N720        N  0.40388098  0.62919936  0.15221533    -0.78200
C721        C  0.39411406  0.62006495  0.17719731     0.82600
N722        N  0.41110812  0.59311173  0.18994403    -0.78100
C723        C  0.43809951  0.57563225  0.17785368     0.82700
N724        N  0.44756950  0.58481652  0.15282458    -0.79800
C725        C  0.45544992  0.88271445  0.30608957     0.42400
N726        N  0.99221460  0.92514834  0.29529225     0.01300
C727        C  0.99013356  0.52989605  0.18238261    -0.06600
H728        H  0.00505911  0.89652383  0.16330347     0.06800
C729        C  0.12219265  0.90127352  0.21836750    -0.06900
Co730      Co  0.46972849  0.96489441  0.24815579     0.74200
N731        N  0.99687763  0.92739640  0.19894092    -0.26100
Co732      Co  0.03651242  0.96636102  0.20000622     0.74100
C733        C  0.11082864  0.88403231  0.19408056     0.42500
N734        N  0.09577945  0.92646434  0.27984770     0.00900
N735        N  0.07604206  0.92767015  0.20195467     0.01000
N736        N  0.44687136  0.53079408  0.21411207    -0.47000
H737        H  0.42149376  0.89433289  0.26914164     0.06800
N738        N  0.47289548  0.92617369  0.21874758     0.01300
N739        N  0.07646440  0.00527596  0.20193210     0.01000
C740        C  0.11190095  0.54770276  0.19312235     0.42600
N741        N  0.07089967  0.92623406  0.29816920    -0.25600
C742        C  0.44414052  0.53066237  0.28231169    -0.06500
N743        N  0.98684329  0.89927244  0.31264480    -0.46700
N744        N  0.08366983  0.52938335  0.18361652    -0.46900
C745        C  0.45367334  0.54550686  0.30791070     0.42400
N746        N  0.47158092  0.00432502  0.21882920     0.01300
N747        N  0.06974026  0.00357211  0.29904785    -0.25600
N748        N  0.46836723  0.92560617  0.27747398    -0.26100
N749        N  0.09513229  0.00448612  0.28106794     0.00900
H750        H  0.05882298  0.53545496  0.33297405     0.06800
H751        H  0.14436481  0.53698887  0.23080780     0.06800
N752        N  0.99656854  0.00475027  0.19982240    -0.26100
N753        N  0.09915174  0.92799595  0.22163125    -0.25800
N754        N  0.99031612  0.00247498  0.29646324     0.01300
C755        C  0.45978547  0.88326464  0.19257601     0.42700
C756        C  0.07822048  0.90014145  0.31557530    -0.07000
N757        N  0.09883128  0.00547267  0.22210230    -0.25800
H758        H  0.14448334  0.89520317  0.23113147     0.06800
N759        N  0.44944431  0.90051970  0.21462711    -0.47000
H760        H  0.06337509  0.89428625  0.33337237     0.06800
C761        C  0.10674959  0.54739782  0.30601493     0.42500
C762        C  0.44445368  0.89964782  0.28141947    -0.06500
Co763      Co  0.03071428  0.96442431  0.29783147     0.73800
N764        N  0.12006380  0.90147900  0.28359770    -0.46700
C765        C  0.45780872  0.54766632  0.19191758     0.42800
N766        N  0.98203088  0.52533127  0.31427604    -0.46700
Co767      Co  0.09778719  0.96625232  0.25121884     0.73900
C768        C  0.12148075  0.53181653  0.21841895    -0.07000
C769        C  0.99004731  0.90166987  0.18112934    -0.06600
N770        N  0.46843860  0.00319251  0.27790322    -0.26100
N771        N  0.08218868  0.90173863  0.18475355    -0.46900
H772        H  0.00634339  0.53654387  0.16542304     0.06800
C773        C  0.07471748  0.52976312  0.31566991    -0.07000
Cl774      Cl  0.03353695  0.96564945  0.24893173    -0.50000
C775        C  0.11048060  0.88334820  0.30547166     0.42500
H776        H  0.42135220  0.53631243  0.26992262     0.06800
N777        N  0.11756603  0.52999633  0.28422727    -0.46700
C778        C  0.13541014  0.81638651  0.14431869     0.80200
N779        N  0.11784989  0.84316851  0.15675207    -0.78200
C780        C  0.12872024  0.85443397  0.18093674     0.82600
N781        N  0.15692163  0.83859034  0.19284419    -0.78100
C782        C  0.17407553  0.81137239  0.18074344     0.82700
N783        N  0.16327524  0.80032540  0.15656002    -0.79800
C784        C  0.39633273  0.58015660  0.36150664     0.80200
N785        N  0.37830779  0.60560809  0.34777938    -0.78200
C786        C  0.38608376  0.61268037  0.32211963     0.82600
N787        N  0.41153841  0.59368190  0.30976956    -0.78100
C788        C  0.43065817  0.56907336  0.32316819     0.82700
N789        N  0.42281662  0.56198583  0.34891093    -0.79800
C790        C  0.13766608  0.61324131  0.35520825     0.80200
N791        N  0.11851776  0.58713641  0.34316772    -0.78200
C792        C  0.12677275  0.57622292  0.31837976     0.82600
N793        N  0.15421182  0.59164071  0.30526364    -0.78100
C794        C  0.17309751  0.61804572  0.31699279     0.82700
N795        N  0.16491681  0.62839812  0.34188135    -0.79800
C796        C  0.17101136  0.57600624  0.13869601     0.80200
N797        N  0.14409717  0.56003818  0.15214011    -0.78200
C798        C  0.13604485  0.56974019  0.17728928     0.82600
N799        N  0.15541859  0.59552009  0.18935161    -0.78100
C800        C  0.18106511  0.61315594  0.17582296     0.82700
N801        N  0.18910432  0.60301276  0.15074998    -0.79800
C802        C  0.36834681  0.79206255  0.19507089     0.42400
N803        N  0.32418343  0.75752490  0.20268348     0.01300
C804        C  0.21931732  0.75986701  0.31574186    -0.06600
H805        H  0.35326186  0.73994676  0.33431835     0.06800
C806        C  0.34840593  0.62555204  0.28051826    -0.06900
Co807      Co  0.28513920  0.77934485  0.25147866     0.74200
N808        N  0.32189824  0.75071508  0.29933570    -0.26100
Co809      Co  0.28291965  0.71146652  0.29772763     0.74100
C810        C  0.36285392  0.63528927  0.30623724     0.42500
N811        N  0.32368961  0.65275558  0.21713535     0.00900
N812        N  0.32115683  0.67150079  0.29639539     0.01000
N813        N  0.22110627  0.80222483  0.28388413    -0.47000
H814        H  0.35791270  0.82475543  0.23268789     0.06800
N815        N  0.32295882  0.77635414  0.28143879     0.01300
N816        N  0.24434310  0.67198419  0.29468924     0.01000
C817        C  0.20190561  0.63591959  0.30298830     0.42600
N818        N  0.32324025  0.67847383  0.19927316    -0.25600
C819        C  0.22116612  0.80507007  0.21817120    -0.06500
N820        N  0.34940525  0.76452327  0.18514882    -0.46700
N821        N  0.21889425  0.66517172  0.31198425    -0.46900
C822        C  0.20407087  0.79401552  0.19375526     0.42400
N823        N  0.24536721  0.77730864  0.27990752     0.01300
N824        N  0.24636820  0.67800848  0.19861836    -0.25600
N825        N  0.32464794  0.77984290  0.22285946    -0.26100
N826        N  0.24608364  0.65265254  0.21678011     0.00900
H827        H  0.21604438  0.68549646  0.16259805     0.06800
H828        H  0.21388796  0.60187343  0.26622989     0.06800
N829        N  0.24483297  0.75203729  0.29810768    -0.26100
N830        N  0.32242790  0.64915499  0.27623130    -0.25800
N831        N  0.24672375  0.75817282  0.20205611     0.01300
C832        C  0.36551429  0.78859629  0.30792767     0.42700
C833        C  0.34897807  0.67258509  0.18157142    -0.07000
N834        N  0.24527828  0.64858107  0.27518531    -0.25800
H835        H  0.35446409  0.60280342  0.26817579     0.06800
N836        N  0.34865035  0.79969034  0.28587067    -0.47000
H837        H  0.35446563  0.68875678  0.16431815     0.06800
C838        C  0.20448623  0.63771257  0.19007070     0.42500
C839        C  0.35188931  0.80240940  0.21992626    -0.06500
Co840      Co  0.28499010  0.71819385  0.20001417     0.73800
N841        N  0.34884562  0.62883723  0.21258722    -0.46700
C842        C  0.20319398  0.79280059  0.30583411     0.42800
N843        N  0.22121753  0.76489301  0.18465580    -0.46700
Co844      Co  0.28451030  0.65014066  0.24629287     0.73900
C845        C  0.21915426  0.62476646  0.27863952    -0.07000
C846        C  0.34787508  0.75620698  0.31706698    -0.06600
N847        N  0.24729912  0.78137715  0.22167797    -0.26100
N848        N  0.34437370  0.66355089  0.31524760    -0.46900
H849        H  0.21363145  0.74509658  0.33365139     0.06800
C850        C  0.22121588  0.67051634  0.18050635    -0.07000
Cl851      Cl  0.28432973  0.71474815  0.24887449    -0.50000
C852        C  0.36582967  0.63979263  0.19052290     0.42500
H853        H  0.21540632  0.82753933  0.23086418     0.06800
N854        N  0.22161623  0.62808380  0.21235648    -0.46700
N855        N  0.28840309  0.95946871  0.53740828    -0.36700
N856        N  0.32643047  0.00085649  0.49819148    -0.57200
N857        N  0.28244077  0.96832978  0.45701446    -0.36700
N858        N  0.24701909  0.92418724  0.49657834    -0.57200
C859        C  0.31447351  0.97404342  0.55230555     0.26900
C860        C  0.27413347  0.93242204  0.55155880     0.26900
C861        C  0.30853272  0.98335771  0.44231226     0.26900
C862        C  0.26542678  0.94438042  0.44147290     0.26900
C863        C  0.33584018  0.51921665  0.52056764     0.35500
C864        C  0.33731000  0.51970493  0.47784508     0.35500
C865        C  0.23044408  0.91070326  0.51806476     0.35500
C866        C  0.22658555  0.91605479  0.47545328     0.35500
C867        C  0.31698579  0.95602285  0.57619536    -0.22000
C868        C  0.29138276  0.92997391  0.57582915    -0.22000
C869        C  0.30772526  0.96914260  0.41698343    -0.22000
C870        C  0.28053893  0.94460567  0.41644254    -0.22000
C871        C  0.35186893  0.55102167  0.51334630    -0.23000
C872        C  0.35309966  0.55119433  0.48615321    -0.23000
C873        C  0.19955353  0.89333050  0.51051742    -0.23000
C874        C  0.19710701  0.89671987  0.48347104    -0.23000
C875        C  0.33354411  0.00536965  0.54607128    -0.18400
C876        C  0.24397241  0.91213166  0.54416524    -0.18400
C877        C  0.23573020  0.92336873  0.44889326    -0.18400
C878        C  0.33172489  0.01096266  0.45067038    -0.18400
H879        H  0.33459684  0.96187672  0.59258579     0.14500
H880        H  0.28561224  0.91209413  0.59205330     0.14500
H881        H  0.32478139  0.97590581  0.40050477     0.14500
H882        H  0.27274115  0.92880227  0.39948310     0.14500
H883        H  0.36221125  0.57154021  0.52629161     0.12800
H884        H  0.36449783  0.57196794  0.47393793     0.12800
H885        H  0.18102572  0.87922599  0.52310189     0.12800
H886        H  0.17632185  0.88575242  0.47108697     0.12800
H887        H  0.27891028  0.96944900  0.51962868     0.26100
H888        H  0.27533008  0.97541209  0.47611474     0.26100
N889        N  0.03372176  0.71443573  0.03796283    -0.36700
N890        N  0.49457441  0.68508996  0.99836319    -0.57200
N891        N  0.03910366  0.71343684  0.95779435    -0.36700
N892        N  0.07528429  0.75346617  0.99921547    -0.57200
C893        C  0.00602351  0.70098342  0.05166374     0.26900
C894        C  0.04810080  0.74049094  0.05293467     0.26900
C895        C  0.01418324  0.69832749  0.94204632     0.26900
C896        C  0.05652117  0.73813168  0.94316327     0.26900
C897        C  0.48345867  0.66631373  0.01964347     0.35500
C898        C  0.48194439  0.66802705  0.97678917     0.35500
C899        C  0.09314648  0.76299573  0.02132392     0.35500
C900        C  0.09561035  0.76328434  0.97846117     0.35500
C901        C  0.00257942  0.71883687  0.07554306    -0.22000
C902        C  0.02916904  0.74386321  0.07633164    -0.22000
C903        C  0.01614505  0.71325676  0.91694156    -0.22000
C904        C  0.04264849  0.73850359  0.91769084    -0.22000
C905        C  0.46314246  0.63747952  0.01163530    -0.23000
C906        C  0.46189371  0.63874015  0.98449133    -0.23000
C907        C  0.12481709  0.77947239  0.01462963    -0.23000
C908        C  0.12628114  0.77985713  0.98740247    -0.23000
C909        C  0.49034823  0.67567314  0.04622491    -0.18400
C910        C  0.08016334  0.75839202  0.04732379    -0.18400
C911        C  0.08613617  0.75862572  0.95158801    -0.18400
C912        C  0.48795387  0.67846658  0.95020847    -0.18400
H913        H  0.98361934  0.71356995  0.09114467     0.14500
H914        H  0.03465858  0.76174670  0.09263887     0.14500
H915        H  0.00030347  0.70647868  0.89976752     0.14500
H916        H  0.05117842  0.75481647  0.90119017     0.14500
H917        H  0.45042288  0.61768996  0.02402041     0.12800
H918        H  0.44808427  0.61995512  0.97189804     0.12800
H919        H  0.14460986  0.79033384  0.02792441     0.12800
H920        H  0.14751199  0.79094817  0.97555275     0.12800
H921        H  0.04444812  0.70400055  0.02071722     0.26100
H922        H  0.04529569  0.70575638  0.97694700     0.26100
N923        N  0.03299736  0.70890136  0.46128806    -0.36700
N924        N  0.07392249  0.66997222  0.50073406    -0.57200
N925        N  0.03868786  0.71128141  0.54160608    -0.36700
N926        N  0.99443776  0.74701546  0.50195557    -0.57200
C927        C  0.04752694  0.68302152  0.44628446     0.26900
C928        C  0.00657663  0.72382346  0.44699410     0.26900
C929        C  0.05540325  0.68615798  0.55628852     0.26900
C930        C  0.01336282  0.72623151  0.55694608     0.26900
C931        C  0.09156996  0.65990056  0.47877754     0.35500
C932        C  0.09467447  0.66097601  0.52147149     0.35500
C933        C  0.47770817  0.76060762  0.47993206     0.35500
C934        C  0.47891011  0.76245098  0.52270135     0.35500
C935        C  0.03015303  0.68152176  0.42204343    -0.22000
C936        C  0.00422591  0.70723011  0.42252474    -0.22000
C937        C  0.04066910  0.68529595  0.58143005    -0.22000
C938        C  0.01416734  0.71059578  0.58185262    -0.22000
C939        C  0.12352385  0.64394873  0.48553212    -0.23000
C940        C  0.12540036  0.64443229  0.51269758    -0.23000
C941        C  0.46160651  0.79233786  0.48711634    -0.23000
C942        C  0.46244932  0.79356956  0.51430803    -0.23000
C943        C  0.07808292  0.66306668  0.45287428    -0.18400
C944        C  0.48167816  0.74826738  0.45375510    -0.18400
C945        C  0.48359406  0.75207189  0.54932443    -0.18400
C946        C  0.08517687  0.66580918  0.54820655    -0.18400
H947        H  0.03607240  0.66428481  0.40545909     0.14500
H948        H  0.98632293  0.71362774  0.40641475     0.14500
H949        H  0.04856235  0.66857439  0.59790065     0.14500
H950        H  0.99772422  0.71711844  0.59871798     0.14500
H951        H  0.14313198  0.63271900  0.47230142     0.12800
H952        H  0.14683181  0.63376389  0.52462098     0.12800
H953        H  0.45036911  0.81238419  0.47413953     0.12800
H954        H  0.45186295  0.81474395  0.52651051     0.12800
H955        H  0.04264627  0.71800817  0.47936583     0.26100
H956        H  0.04587695  0.71961464  0.52269290     0.26100
N957        N  0.28262051  0.95362324  0.96238988    -0.36700
N958        N  0.32086279  0.91368710  0.00254729    -0.57200
N959        N  0.28754871  0.95866674  0.04259764    -0.36700
N960        N  0.24615671  0.99551723  0.00233462    -0.57200
C961        C  0.29673878  0.92719342  0.94766396     0.26900
C962        C  0.25721434  0.96935938  0.94754767     0.26900
C963        C  0.30195832  0.93235401  0.05753515     0.26900
C964        C  0.26258477  0.97515310  0.05748936     0.26900
C965        C  0.33861453  0.90234218  0.98097614     0.35500
C966        C  0.34075078  0.90433371  0.02364554     0.35500
C967        C  0.23142517  0.51651125  0.97905271     0.35500
C968        C  0.23215710  0.51827504  0.02181515     0.35500
C969        C  0.28023540  0.92622765  0.92309682    -0.22000
C970        C  0.25513745  0.95269660  0.92307711    -0.22000
C971        C  0.28610920  0.93220308  0.08228548    -0.22000
C972        C  0.26118315  0.95912234  0.08223156    -0.22000
C973        C  0.36961590  0.88505961  0.98835450    -0.23000
C974        C  0.37092879  0.88622061  0.01551386    -0.23000
C975        C  0.20178455  0.53586629  0.98658752    -0.23000
C976        C  0.20232020  0.53711639  0.01374578    -0.23000
C977        C  0.32631756  0.90619538  0.95481426    -0.18400
C978        C  0.24165928  0.50974686  0.95273867    -0.18400
C979        C  0.24257479  0.51309522  0.04842042    -0.18400
C980        C  0.33104623  0.91055808  0.05015015    -0.18400
H981        H  0.28615630  0.90877570  0.90663766     0.14500
H982        H  0.23801820  0.95950158  0.90659541     0.14500
H983        H  0.29229862  0.91486577  0.09880986     0.14500
H984        H  0.24444511  0.96654731  0.09872485     0.14500
H985        H  0.38904147  0.87270116  0.97553304     0.12800
H986        H  0.39166561  0.87501953  0.02784602     0.12800
H987        H  0.18190482  0.54785793  0.97388947     0.12800
H988        H  0.18286501  0.55021863  0.02612657     0.12800
H989        H  0.29183544  0.96231287  0.98059942     0.26100
H990        H  0.29622227  0.96665955  0.02403094     0.26100
C991        C  0.39177476  0.86075902  0.85769753     0.80200
N992        N  0.37428252  0.83460639  0.84425865    -0.78200
C993        C  0.38496346  0.82468681  0.81967545     0.82600
N994        N  0.41317790  0.84107138  0.80829316    -0.78100
C995        C  0.43049855  0.86732911  0.82140103     0.82700
N996        N  0.41989765  0.87679805  0.84600033    -0.79800
C997        C  0.42618876  0.60246456  0.86122431     0.80200
N998        N  0.44376488  0.57570323  0.84862083    -0.78200
C999        C  0.43523246  0.56640711  0.82342889     0.82600
N1000       N  0.40957154  0.58466451  0.81040774    -0.78100
C1001       C  0.39084275  0.61046171  0.82281567     0.82700
N1002       N  0.39938438  0.61946944  0.84805155    -0.79800
C1003       C  0.18535287  0.56697306  0.85622041     0.80200
N1004       N  0.15825445  0.55058428  0.84328848    -0.78200
C1005       C  0.14921082  0.56073395  0.81842746     0.82600
N1006       N  0.16730131  0.58743674  0.80634110    -0.78100
C1007       C  0.19485057  0.60335922  0.81897378     0.82700
N1008       N  0.20394298  0.59289013  0.84373024    -0.79800
C1009       C  0.15370109  0.82618537  0.86180818     0.80200
N1010       N  0.18021127  0.80901618  0.84866260    -0.78200
C1011       C  0.18775541  0.81728810  0.82310925     0.82600
N1012       N  0.16836504  0.84249123  0.81037825    -0.78100
C1013       C  0.14297774  0.86087723  0.82355860     0.82700
N1014       N  0.13531309  0.85220653  0.84899532    -0.79800
C1015       C  0.15287814  0.60001499  0.63878424     0.80200
N1016       N  0.17865712  0.61822861  0.65213941    -0.78200
C1017       C  0.18628597  0.61022661  0.67780159     0.82600
N1018       N  0.16764786  0.58437285  0.69038352    -0.78100
C1019       C  0.14293644  0.56520765  0.67709851     0.82700
N1020       N  0.13526486  0.57354747  0.65162392    -0.79800
C1021       C  0.38880082  0.56585882  0.64264804     0.80200
N1022       N  0.37172838  0.59240156  0.65557220    -0.78200
C1023       C  0.38179772  0.60223478  0.68022621     0.82600
N1024       N  0.40932981  0.58532799  0.69233071    -0.78100
C1025       C  0.42620498  0.55811686  0.67978940     0.82700
N1026       N  0.41570070  0.54836368  0.65506585    -0.79800
C1027       C  0.36649859  0.79618763  0.80545475     0.42400
N1028       N  0.33113107  0.75322428  0.79671844     0.01300
C1029       C  0.33031021  0.64828091  0.68377558    -0.06600
H1030       H  0.31948149  0.78212945  0.66370319     0.06800
C1031       C  0.20041553  0.77997954  0.71828508    -0.06900
Co1032     Co  0.35307473  0.71372352  0.74792656     0.74200
N1033       N  0.32618195  0.75216758  0.69998831    -0.26100
Co1034     Co  0.28581313  0.71414025  0.70075692     0.74100
C1035       C  0.21142856  0.79661366  0.69359782     0.42500
N1036       N  0.22701280  0.75376172  0.78084783     0.00900
N1037       N  0.24664139  0.75343011  0.70233797     0.01000
N1038       N  0.37362194  0.64859849  0.71503141    -0.47000
H1039       H  0.40051685  0.78498264  0.76859558     0.06800
N1040       N  0.35099800  0.75251750  0.71848528     0.01300
N1041       N  0.24570845  0.67577646  0.70243297     0.01000
C1042       C  0.20932976  0.63359807  0.69343080     0.42600
N1043       N  0.25195399  0.75297366  0.79923183    -0.25600
C1044       C  0.37752233  0.64886626  0.78155724    -0.06500
N1045       N  0.33754540  0.77865789  0.81427908    -0.46700
N1046       N  0.23782211  0.65157998  0.68419267    -0.46900
C1047       C  0.36764413  0.63350392  0.80696791     0.42400
N1048       N  0.35035567  0.67459274  0.71881110     0.01300
N1049       N  0.25233164  0.67585714  0.79886343    -0.25600
N1050       N  0.35440753  0.75282520  0.77720758    -0.26100
N1051       N  0.22678526  0.67582868  0.78091977     0.00900
H1052       H  0.26301054  0.64273493  0.83290590     0.06800
H1053       H  0.17665488  0.64413030  0.73098458     0.06800
N1054       N  0.32486394  0.67498867  0.70081081    -0.26100
N1055       N  0.22358904  0.75342840  0.72201206    -0.25800
N1056       N  0.33142752  0.67565689  0.79741065     0.01300
C1057       C  0.36650885  0.79384748  0.69165068     0.42700
C1058       C  0.24458836  0.77780720  0.81751880    -0.07000
N1059       N  0.22311994  0.67566342  0.72236671    -0.25800
H1060       H  0.17791904  0.78598621  0.73079572     0.06800
N1061       N  0.37564548  0.77691837  0.71416690    -0.47000
H1062       H  0.25929123  0.78230110  0.83562593     0.06800
C1063       C  0.21452261  0.63203565  0.80623304     0.42500
C1064       C  0.37779085  0.77924777  0.78095282    -0.06500
Co1065     Co  0.29173884  0.71445690  0.79864227     0.73800
N1066       N  0.20258591  0.77832992  0.78546917    -0.46700
C1067       C  0.36247411  0.63092694  0.69335861     0.42800
N1068       N  0.33929344  0.65187545  0.81601573    -0.46700
Co1069     Co  0.22446276  0.71470631  0.75158931     0.73900
C1070       C  0.19945086  0.64953135  0.71861335    -0.07000
C1071       C  0.33403969  0.77712625  0.68181198    -0.06600
N1072       N  0.35397046  0.67501086  0.77746361    -0.26100
N1073       N  0.24014439  0.77877967  0.68461076    -0.46900
H1074       H  0.31424631  0.64235960  0.66655555     0.06800
C1075       C  0.24679206  0.64904329  0.81584512    -0.07000
Cl1076     Cl  0.28876381  0.71432529  0.74971137    -0.50000
C1077       C  0.21221152  0.79495351  0.80801445     0.42500
H1078       H  0.40035241  0.64320766  0.76929533     0.06800
N1079       N  0.20341230  0.64997030  0.78464849    -0.46700
C1080       C  0.42656168  0.82754867  0.63958511     0.80200
N1081       N  0.39946980  0.81000367  0.65183550    -0.78200
C1082       C  0.39120973  0.81697596  0.67744651     0.82600
N1083       N  0.41073613  0.84094777  0.69126682    -0.78100
C1084       C  0.43662129  0.85985018  0.67906150     0.82700
N1085       N  0.44443075  0.85298446  0.65336289    -0.79800
C1086       C  0.18339528  0.86208256  0.64226668     0.80200
N1087       N  0.15672425  0.87890118  0.65544605    -0.78200
C1088       C  0.14795585  0.86910447  0.68049778     0.82600
N1089       N  0.16595230  0.84243212  0.69254854    -0.78100
C1090       C  0.19285763  0.82568932  0.67997560     0.82700
N1091       N  0.20151230  0.83549283  0.65493129    -0.79800
C1092       C  0.46028029  0.88238496  0.69485795     0.42400
N1093       N  0.50237423  0.91877109  0.70396861     0.01300
C1094       C  0.10286647  0.91772235  0.81905966    -0.06600
H1095       H  0.47067884  0.93511624  0.83522278     0.06800
C1096       C  0.47348552  0.55276054  0.78254303    -0.06900
Co1097     Co  0.03853022  0.89783445  0.75389863     0.74200
N1098       N  0.50259776  0.92486284  0.80070763    -0.26100
Co1099     Co  0.03857822  0.96494175  0.80098660     0.74100
C1100       C  0.45863104  0.54315131  0.80808507     0.42500
N1101       N  0.49797768  0.52601039  0.71938106     0.00900
N1102       N  0.50013817  0.50635092  0.79853817     0.01000
N1103       N  0.10282792  0.87603100  0.78673732    -0.47000
H1104       H  0.47083888  0.84921993  0.73237065     0.06800
N1105       N  0.50241516  0.89926694  0.78278554     0.01300
N1106       N  0.07852509  0.50610680  0.79582204     0.01000
C1107       C  0.12033306  0.54264454  0.80463321     0.42600
N1108       N  0.49848710  0.50034964  0.70151215    -0.25600
C1109       C  0.10296640  0.87449008  0.71945140    -0.06500
N1110       N  0.47822367  0.91103068  0.68571076    -0.46700
N1111       N  0.10362470  0.51311332  0.81344461    -0.46900
C1112       C  0.11882961  0.88640539  0.69468143     0.42400
N1113       N  0.07798955  0.90037673  0.78267649     0.01300
N1114       N  0.07792629  0.50064271  0.69960316    -0.25600
N1115       N  0.50227767  0.89595243  0.72388994    -0.26100
N1116       N  0.07805375  0.52580077  0.71785827     0.00900
H1117       H  0.10870308  0.49305645  0.66395558     0.06800
H1118       H  0.10853864  0.57668166  0.76776001     0.06800
N1119       N  0.07746281  0.92518345  0.80120693    -0.26100
N1120       N  0.49922172  0.52890870  0.77842789    -0.25800
N1121       N  0.07584892  0.92106918  0.70438697     0.01300
C1122       C  0.45994800  0.88616246  0.80894713     0.42700
C1123       C  0.47249083  0.50621152  0.68387778    -0.07000
N1124       N  0.07763988  0.52958339  0.77633250    -0.25800
H1125       H  0.46789284  0.57569866  0.77021221     0.06800
N1126       N  0.47714136  0.87536987  0.78698344    -0.47000
H1127       H  0.46701409  0.49017690  0.66656447     0.06800
C1128       C  0.12007667  0.54058026  0.69159896     0.42500
C1129       C  0.47627551  0.87215319  0.72001349    -0.06500
Co1130     Co  0.03686356  0.96009387  0.70320888     0.73800
N1131       N  0.47252456  0.54975363  0.71493613    -0.46700
C1132       C  0.11997342  0.88548928  0.80906678     0.42800
N1133       N  0.10066096  0.91528085  0.68631533    -0.46700
Co1134     Co  0.03908783  0.52785174  0.74692910     0.73900
C1135       C  0.10334189  0.55369437  0.78011718    -0.07000
C1136       C  0.47663397  0.91884710  0.81815478    -0.06600
N1137       N  0.07644966  0.89749489  0.72381952    -0.26100
N1138       N  0.47683005  0.51460159  0.81726740    -0.46900
H1139       H  0.10787224  0.93229379  0.83715216     0.06800
C1140       C  0.10332574  0.50802698  0.68179827    -0.05000
Cl1141     Cl  0.03779119  0.96249837  0.75204898    -0.50000
C1142       C  0.45532726  0.53884231  0.69289932     0.42500
H1143       H  0.10950348  0.85164763  0.73161885     0.06800
N1144       N  0.10270452  0.55027329  0.71372268    -0.46700
C1145       C  0.22281442  0.56216784  0.92626655    -0.05800
C1146       C  0.22065595  0.52534181  0.93076162     0.00100
C1147       C  0.20278215  0.50335898  0.91233044    -0.08500
C1148       C  0.19207801  0.51811942  0.88823045    -0.05900
C1149       C  0.19603258  0.55457075  0.88283008     0.00100
C1150       C  0.20977637  0.57751768  0.90276550    -0.08400
C1151       C  0.21086494  0.61779058  0.89956856     0.62000
H1152       H  0.23607500  0.57861373  0.94087454     0.12700
H1153       H  0.18058739  0.50068690  0.87338860     0.12700
C1154       C  0.19453578  0.46427384  0.91692460     0.62200
F1155       F  0.21715901  0.63469498  0.92348051    -0.23000
F1156       F  0.17866440  0.63005400  0.88993645    -0.20300
F1157       F  0.23774713  0.62720754  0.88234087    -0.20000
F1158       F  0.15912626  0.45828687  0.91113266    -0.20000
F1159       F  0.20020820  0.45356309  0.94278321    -0.20300
F1160       F  0.21521464  0.44370056  0.90029555    -0.23000
C1161       C  0.37170385  0.91390119  0.92071561    -0.05800
C1162       C  0.34737463  0.89110605  0.93287029     0.00100
C1163       C  0.34010858  0.85735345  0.92197062    -0.08500
C1164       C  0.35676216  0.84797100  0.89814006    -0.05900
C1165       C  0.37951762  0.87169715  0.88460378     0.00100
C1166       C  0.38793524  0.90522712  0.89658605    -0.08400
C1167       C  0.41259256  0.93276680  0.88418417     0.62000
H1168       H  0.37648569  0.93955157  0.92990682     0.12700
H1169       H  0.35107433  0.82219679  0.88950669     0.12700
C1170       C  0.31395627  0.83208847  0.93507896     0.62200
F1171       F  0.41463817  0.96376379  0.89901683    -0.23000
F1172       F  0.40033117  0.94219755  0.85931048    -0.20300
F1173       F  0.44658582  0.91902064  0.88250201    -0.20000
F1174       F  0.28067462  0.84759072  0.93610179    -0.20000
F1175       F  0.32513576  0.82451281  0.96055378    -0.20300
F1176       F  0.31095491  0.80024533  0.92142506    -0.23000
C1177       C  0.14995236  0.64796585  0.60447163    -0.05800
C1178       C  0.13968544  0.61337416  0.61251085     0.00100
C1179       C  0.11500894  0.59426146  0.59634002    -0.08500
C1180       C  0.09840380  0.61217641  0.57516902    -0.05900
C1181       C  0.10660169  0.64755366  0.56893646     0.00100
C1182       C  0.13405519  0.66521283  0.58270533    -0.08400
C1183       C  0.14587051  0.70238672  0.57458777     0.62000
H1184       H  0.16953585  0.66229471  0.61598938     0.12700
H1185       H  0.07797084  0.59896715  0.56366315     0.12700
C1186       C  0.10567801  0.55529026  0.60087805     0.62200
F1187       F  0.17491572  0.71381827  0.58910496    -0.23000
F1188       F  0.11844409  0.72633761  0.57838752    -0.20300
F1189       F  0.15534871  0.70255750  0.54814930    -0.20000
F1190       F  0.08232829  0.55219507  0.62186045    -0.20000
F1191       F  0.13614582  0.53582173  0.60595845    -0.20300
F1192       F  0.08960088  0.54040842  0.57882373    -0.23000
C1193       C  0.41890700  0.78842227  0.60022951    -0.05800
C1194       C  0.44018761  0.81370643  0.61362284     0.00100
C1195       C  0.47477873  0.82133993  0.60333299    -0.08500
C1196       C  0.48756625  0.80061367  0.58216712    -0.05900
C1197       C  0.46693418  0.77403245  0.57034205     0.00100
C1198       C  0.43167895  0.76854103  0.57867563    -0.08400
C1199       C  0.40801047  0.74136192  0.56501188     0.62000
H1200       H  0.39218106  0.78351711  0.60716479     0.12700
H1201       H  0.02031098  0.80722086  0.57683024     0.12700
C1202       C  0.49866692  0.85078098  0.61406595     0.62200
F1203       F  0.37511332  0.73869816  0.57701553    -0.23000
F1204       F  0.42376995  0.70806087  0.56568277    -0.20300
F1205       F  0.40273071  0.75128026  0.53893407    -0.20000
F1206       F  0.50952400  0.84279329  0.63956740    -0.20000
F1207       F  0.48059059  0.88291410  0.61368760    -0.20300
F1208       F  0.03638213  0.85215579  0.60593283    -0.23000
C1209       C  0.10280485  0.81345189  0.92675444    -0.05800
C1210       C  0.10773690  0.77680967  0.93087825     0.00100
C1211       C  0.13175151  0.75778891  0.91473453    -0.08500
C1212       C  0.14737177  0.77542224  0.89313274    -0.05900
C1213       C  0.14051894  0.81163791  0.88756409     0.00100
C1214       C  0.11936379  0.83154641  0.90564057    -0.08400
C1215       C  0.11416701  0.87159516  0.90312152     0.62000
H1216       H  0.08497792  0.82762790  0.93985817     0.12700
H1217       H  0.16409515  0.76033327  0.87983217     0.12700
C1218       C  0.14097415  0.71907425  0.92045599     0.62200
F1219       F  0.10135668  0.88624376  0.92637172    -0.23000
F1220       F  0.08998340  0.87900107  0.88322880    -0.20300
F1221       F  0.14624832  0.88795125  0.89756178    -0.20000
F1222       F  0.11154990  0.69761812  0.91678426    -0.20000
F1223       F  0.15256890  0.71582101  0.94634098    -0.20300
F1224       F  0.16771003  0.70675385  0.90406807    -0.23000
C1225       C  0.48417513  0.62526487  0.92177113    -0.05800
C1226       C  0.46948702  0.65801275  0.92907267     0.00100
C1227       C  0.43872296  0.67068702  0.91618041    -0.08500
C1228       C  0.42430357  0.65027861  0.89544827    -0.05900
C1229       C  0.44013284  0.61818473  0.88661893     0.00100
C1230       C  0.47027259  0.60481798  0.90084591    -0.08400
C1231       C  0.48892716  0.56993685  0.89424288     0.62000
H1232       H  0.50760914  0.61639583  0.93236938     0.12700
H1233       H  0.40109441  0.66040118  0.88529576     0.12700
C1234       C  0.42164552  0.70592238  0.92395963     0.62200
F1235       F  0.02919082  0.56553179  0.89899263    -0.23000
F1236       F  0.50635116  0.57304606  0.87027690    -0.20300
F1237       F  0.46453633  0.54239430  0.89322729    -0.20000
F1238       F  0.44479879  0.73380523  0.91933292    -0.20000
F1239       F  0.41301419  0.70534714  0.95054199    -0.20300
F1240       F  0.39093503  0.71257279  0.90966883    -0.23000
C1241       C  0.38363519  0.52682095  0.57309510    -0.05800
C1242       C  0.34684864  0.52761518  0.56893880     0.00100
C1243       C  0.32478701  0.54618596  0.58680714    -0.08500
C1244       C  0.33961582  0.55854212  0.61056190    -0.05900
C1245       C  0.37608333  0.55484902  0.61606706     0.00100
C1246       C  0.39891715  0.54152868  0.59604911    -0.08400
C1247       C  0.43904409  0.54392933  0.59821656     0.62000
H1248       H  0.40023443  0.51390532  0.55846627     0.12700
H1249       H  0.32239756  0.57032533  0.62530786     0.12700
C1250       C  0.28582833  0.55292343  0.58077598     0.62200
F1251       F  0.45510717  0.53913386  0.57384287    -0.23000
F1252       F  0.45159579  0.51796877  0.61526274    -0.20300
F1253       F  0.44881281  0.57728057  0.60744074    -0.20000
F1254       F  0.26665267  0.52174854  0.58367872    -0.20000
F1255       F  0.28208003  0.56527031  0.55509306    -0.20300
F1256       F  0.27160310  0.57840873  0.59751278    -0.23000
C1257       C  0.19482452  0.91197731  0.57610261    -0.05800
C1258       C  0.22416620  0.89393405  0.56572154     0.00100
C1259       C  0.23654982  0.86266804  0.57833591    -0.08500
C1260       C  0.22168739  0.85304947  0.60274695    -0.05900
C1261       C  0.19397048  0.87267885  0.61465713     0.00100
C1262       C  0.17863932  0.90155299  0.60000134    -0.08400
C1263       C  0.14580295  0.92194506  0.60887211     0.62000
H1264       H  0.18561724  0.93550732  0.56567939     0.12700
H1265       H  0.23269906  0.82998150  0.61275133     0.12700
C1266       C  0.26627706  0.83942325  0.56766713     0.62200
F1267       F  0.13428691  0.94595214  0.58981694    -0.23000
F1268       F  0.15315258  0.94113349  0.63158667    -0.20300
F1269       F  0.11820008  0.89838487  0.61340643    -0.20000
F1270       F  0.29523874  0.84143374  0.58448741    -0.20000
F1271       F  0.27696604  0.84911362  0.54250828    -0.20300
F1272       F  0.25486716  0.80437031  0.56664375    -0.23000
C1273       C  0.21196321  0.58016183  0.10009212    -0.05800
C1274       C  0.18477369  0.56093176  0.11308839     0.00100
C1275       C  0.17448063  0.52703650  0.10246776    -0.08500
C1276       C  0.19356739  0.51319541  0.08084842    -0.05900
C1277       C  0.22184037  0.53164171  0.06935774     0.00100
C1278       C  0.23069504  0.56606757  0.07841917    -0.08400
C1279       C  0.26014506  0.58745845  0.06536942     0.62000
H1280       H  0.21924639  0.60627333  0.10739104     0.12700
H1281       H  0.18728718  0.48708422  0.07298112     0.12700
C1282       C  0.14430121  0.50456266  0.11360825     0.62200
F1283       F  0.26559955  0.61990333  0.07778240    -0.23000
F1284       F  0.25137977  0.59411117  0.03923370    -0.20300
F1285       F  0.29165977  0.56855589  0.06628123    -0.20000
F1286       F  0.11313361  0.52410122  0.11345906    -0.20000
F1287       F  0.15238386  0.49363867  0.13908292    -0.20300
F1288       F  0.13827737  0.47411182  0.09876328    -0.23000
C1289       C  0.10599345  0.60209602  0.39718640    -0.05800
C1290       C  0.12784333  0.62514907  0.38232553     0.00100
C1291       C  0.13731253  0.65901976  0.39315775    -0.08500
C1292       C  0.12196687  0.66921668  0.41730815    -0.05900
C1293       C  0.09808393  0.64712840  0.43071398     0.00100
C1294       C  0.09058056  0.61267446  0.42113831    -0.08400
C1295       C  0.06543867  0.58780823  0.43570029     0.62000
H1296       H  0.09992653  0.57588688  0.38945902     0.12700
H1297       H  0.12717768  0.69537442  0.42552748     0.12700
C1298       C  0.16220884  0.68518537  0.37943684     0.62200
F1299       F  0.06214415  0.55522537  0.42305881    -0.23000
F1300       F  0.03203950  0.60295963  0.43722446    -0.20300
F1301       F  0.07803126  0.58164233  0.46101316    -0.20000
F1302       F  0.14855933  0.69465825  0.35496714    -0.20000
F1303       F  0.19542990  0.66994486  0.37648019    -0.20300
F1304       F  0.16670609  0.71625244  0.39383579    -0.23000
C1305       C  0.40213185  0.53944103  0.40042054    -0.05800
C1306       C  0.38309422  0.56719825  0.38785819     0.00100
C1307       C  0.35055470  0.57875644  0.39963015    -0.08500
C1308       C  0.33592011  0.55822520  0.42015883    -0.05900
C1309       C  0.35358756  0.52876394  0.43078224     0.00100
C1310       C  0.38818408  0.52028935  0.42197626    -0.08400
C1311       C  0.41155056  0.49178590  0.43450183     0.62000
H1312       H  0.42796614  0.53174624  0.39293225     0.12700
H1313       H  0.31005188  0.56486506  0.42813139     0.12700
C1314       C  0.33082785  0.61242020  0.39143794     0.62200
F1315       F  0.42329115  0.46849063  0.41519270    -0.23000
F1316       F  0.39451372  0.47199418  0.45376101    -0.20300
F1317       F  0.44069020  0.50805967  0.44601760    -0.20000
F1318       F  0.31401652  0.60730177  0.36737987    -0.20000
F1319       F  0.35429773  0.64072277  0.38981009    -0.20300
F1320       F  0.30511933  0.62175668  0.40975863    -0.23000
C1321       C  0.10087593  0.81020667  0.07355590    -0.05800
C1322       C  0.10016259  0.77303539  0.07024245     0.00100
C1323       C  0.11367970  0.75065639  0.09061395    -0.08500
C1324       C  0.12444798  0.76619970  0.11441282    -0.05900
C1325       C  0.12359635  0.80313610  0.11828371     0.00100
C1326       C  0.11312539  0.82582975  0.09719801    -0.08400
C1327       C  0.11560822  0.86614798  0.09930690     0.62000
H1328       H  0.09056377  0.82687514  0.05778499     0.12700
H1329       H  0.13341326  0.74899418  0.13037258     0.12700
C1330       C  0.11713508  0.71037037  0.08885610     0.62200
F1331       F  0.11097222  0.88247380  0.07495560    -0.23000
F1332       F  0.14876570  0.87575537  0.10878998    -0.20300
F1333       F  0.08968874  0.87879992  0.11621723    -0.20000
F1334       F  0.10866347  0.69687449  0.06422938    -0.20000
F1335       F  0.09522975  0.69477663  0.10755123    -0.20300
F1336       F  0.15188510  0.70081191  0.09435364    -0.23000
C1337       C  0.47881813  0.61711377  0.10689416    -0.05800
C1338       C  0.44288507  0.62297051  0.11305689     0.00100
C1339       C  0.42106316  0.64087083  0.09420588    -0.08500
C1340       C  0.43736567  0.65762007  0.07242767    -0.05900
C1341       C  0.47387601  0.65432585  0.06781351     0.00100
C1342       C  0.49439681  0.63152151  0.08406086    -0.08400
C1343       C  0.02946914  0.61774242  0.07564802     0.62000
H1344       H  0.49530809  0.60226215  0.12060220     0.12700
H1345       H  0.42173720  0.67379635  0.05896205     0.12700
C1346       C  0.38083592  0.64127191  0.09601926     0.62200
F1347       F  0.04511699  0.59571277  0.09433134    -0.23000
F1348       F  0.05042185  0.64777508  0.07322717    -0.20300
F1349       F  0.02896067  0.59985130  0.05172588    -0.20000
F1350       F  0.36995100  0.66674482  0.11398761    -0.20000
F1351       F  0.36847647  0.60808606  0.10370911    -0.20300
F1352       F  0.36554701  0.64913799  0.07172711    -0.23000
C1353       C  0.17421235  0.90345535  0.39097874    -0.05800
C1354       C  0.18555366  0.86893651  0.38363442     0.00100
C1355       C  0.21057243  0.85098931  0.40019430    -0.08500
C1356       C  0.22579154  0.86967261  0.42151564    -0.05900
C1357       C  0.21581748  0.90463041  0.42759159     0.00100
C1358       C  0.18845037  0.92132419  0.41303705    -0.08400
C1359       C  0.17410943  0.95756454  0.42112321     0.62000
H1360       H  0.15446379  0.91694085  0.37903598     0.12700
H1361       H  0.24631741  0.85733017  0.43347228     0.12700
C1362       C  0.22120823  0.81229260  0.39613253     0.62200
F1363       F  0.14679155  0.96879788  0.40471747    -0.23000
F1364       F  0.20081708  0.98281897  0.42018299    -0.20300
F1365       F  0.16103919  0.95562276  0.44665297    -0.20000
F1366       F  0.24383152  0.80942304  0.37470223    -0.20000
F1367       F  0.19126011  0.79162941  0.39205890    -0.20300
F1368       F  0.23868613  0.79863580  0.41805341    -0.23000
C1369       C  0.34707888  0.85706253  0.07671153    -0.05800
C1370       C  0.35238730  0.89334060  0.07139227     0.00100
C1371       C  0.37824363  0.91256534  0.08573699    -0.08500
C1372       C  0.39501939  0.89585668  0.10726228    -0.05900
C1373       C  0.38791753  0.86010891  0.11414879     0.00100
C1374       C  0.36521995  0.83963153  0.09743062    -0.08400
C1375       C  0.36086351  0.79952187  0.10047432     0.62000
H1376       H  0.32824838  0.84255924  0.06457144     0.12700
H1377       H  0.41317930  0.91125506  0.11929998     0.12700
C1378       C  0.38851306  0.95032324  0.07790582     0.62200
F1379       F  0.34551086  0.78445980  0.07820348    -0.23000
F1380       F  0.33927451  0.79177366  0.12181730    -0.20300
F1381       F  0.39377282  0.78375598  0.10399693    -0.20000
F1382       F  0.35956094  0.97276564  0.07990296    -0.20000
F1383       F  0.40056934  0.95046904  0.05205638    -0.20300
F1384       F  0.41525554  0.96379877  0.09385301    -0.23000
C1385       C  0.48966319  0.79209318  0.41811674    -0.05800
C1386       C  0.46642863  0.76924361  0.43157025     0.00100
C1387       C  0.43131558  0.76476792  0.42223572    -0.08500
C1388       C  0.42139913  0.78201248  0.39869923    -0.05900
C1389       C  0.44528730  0.80310504  0.38395130     0.00100
C1390       C  0.47982073  0.80958100  0.39455464    -0.08400
C1391       C  0.50665569  0.83422304  0.38144346     0.62000
H1392       H  0.51621560  0.79529209  0.42605930     0.12700
H1393       H  0.39457705  0.77803687  0.39144202     0.12700
C1394       C  0.40333022  0.74196679  0.43575302     0.62200
F1395       F  0.53844347  0.83553800  0.39524135    -0.23000
F1396       F  0.49318704  0.86853382  0.38057494    -0.20300
F1397       F  0.51413851  0.82249344  0.35611113    -0.20000
F1398       F  0.41588187  0.72362855  0.45757281    -0.20000
F1399       F  0.87706411  0.74748461  0.42778546    -0.20300
F1400       F  0.37576393  0.76370850  0.44388769    -0.23000
C1401       C  0.93660641  0.31347052  0.35579273     0.80200
N1402       N  0.95183283  0.34134617  0.34288106    -0.78200
C1403       C  0.94001915  0.35148639  0.31858780     0.82600
N1404       N  0.91233975  0.33411033  0.30726496    -0.78100
C1405       C  0.89688115  0.30630966  0.31992732     0.82700
N1406       N  0.90912186  0.29603170  0.34400010    -0.79800
C1407       C  0.89917820  0.34654740  0.13785242     0.80200
N1408       N  0.88038827  0.32243155  0.15229846    -0.78200
C1409       C  0.88845158  0.31628391  0.17810118     0.82600
N1410       N  0.91458482  0.33535415  0.18990399    -0.78100
C1411       C  0.93421354  0.35882661  0.17568870     0.82700
N1412       N  0.92628041  0.36459276  0.14978852    -0.79800
C1413       C  0.66775931  0.34789480  0.36195152     0.80200
N1414       N  0.68619895  0.32290527  0.34828091    -0.78200
C1415       C  0.67931062  0.31653671  0.32238367     0.82600
N1416       N  0.65427283  0.33620107  0.30961638    -0.78100
C1417       C  0.63452045  0.36034274  0.32321750     0.82700
N1418       N  0.64156722  0.36629820  0.34922486    -0.79800
C1419       C  0.92894666  0.11145713  0.14034011     0.80200
N1420       N  0.90258405  0.12916771  0.15313155    -0.78200
C1421       C  0.89270410  0.11956691  0.17803629     0.82600
N1422       N  0.90986483  0.09241786  0.19054283    -0.78100
C1423       C  0.93701397  0.07532938  0.17820976     0.82700
N1424       N  0.94628238  0.08490079  0.15328818    -0.79800
C1425       C  0.95709598  0.38091627  0.30446140     0.42400
N1426       N  0.49055304  0.42656984  0.29756771     0.01300
C1427       C  0.49056223  0.03029226  0.18329183    -0.06600
H1428       H  0.50280323  0.39794726  0.16493420     0.06800
C1429       C  0.62054205  0.39997251  0.22002123    -0.06900
Co1430     Co  0.96899277  0.46315116  0.24633683     0.74200
N1431       N  0.49542424  0.42816732  0.20095668    -0.26100
Co1432     Co  0.53579374  0.46634797  0.20199838     0.74100
C1433       C  0.60898403  0.38320977  0.19549580     0.42500
N1434       N  0.59485972  0.42606457  0.28230981     0.00900
N1435       N  0.57466129  0.42707401  0.20393618     0.01000
N1436       N  0.94667349  0.02936865  0.21343388    -0.47000
H1437       H  0.92268045  0.39122120  0.26751911     0.06800
N1438       N  0.97246968  0.42456240  0.21683190     0.01300
N1439       N  0.57623065  0.50468895  0.20387720     0.01000
C1440       C  0.61423741  0.04640245  0.19378169     0.42600
N1441       N  0.57001583  0.42641197  0.30069780    -0.25600
C1442       C  0.94363602  0.02835567  0.28044744    -0.06500
N1443       N  0.48467634  0.40062708  0.31481614    -0.46700
N1444       N  0.58543177  0.02866504  0.18475877    -0.46900
C1445       C  0.95324384  0.04363807  0.30587093     0.42400
N1446       N  0.97045284  0.50262154  0.21716598     0.01300
N1447       N  0.56970448  0.50382975  0.30082103    -0.25600
N1448       N  0.96854995  0.42398735  0.27572915    -0.26100
N1449       N  0.59507442  0.50415667  0.28280301     0.00900
H1450       H  0.56049189  0.03444770  0.33542993     0.06800
H1451       H  0.64692229  0.03582547  0.23144890     0.06800
N1452       N  0.49661552  0.50527410  0.20136100    -0.26100
N1453       N  0.59780565  0.42692299  0.22360591    -0.25800
N1454       N  0.49025200  0.50391888  0.29842014     0.01300
C1455       C  0.95828630  0.38292388  0.18979647     0.42700
C1456       C  0.57763297  0.40102098  0.31867429    -0.07000
N1457       N  0.59865725  0.50461415  0.22399944    -0.25800
H1458       H  0.64290708  0.39357896  0.23262862     0.06800
N1459       N  0.94873689  0.39928329  0.21240512    -0.47000
H1460       H  0.56299749  0.39588273  0.33668612     0.06800
C1461       C  0.60851900  0.04649160  0.30864835     0.42500
C1462       C  0.94546685  0.39734597  0.27976619    -0.06500
Co1463     Co  0.53004642  0.46516940  0.29996550     0.73800
N1464       N  0.61932076  0.40133678  0.28654360    -0.46700
C1465       C  0.95724492  0.04724177  0.19164579     0.42800
N1466       N  0.48256347  0.02600719  0.31670785    -0.46700
Co1467     Co  0.59714071  0.46548516  0.25322965     0.73900
C1468       C  0.62371421  0.03097766  0.21932039    -0.07000
C1469       C  0.48794230  0.40303393  0.18283852    -0.06600
N1470       N  0.96724906  0.50160011  0.27593582    -0.26100
N1471       N  0.58052724  0.40140956  0.18643858    -0.46900
H1472       H  0.50630810  0.03612796  0.16592945     0.06800
C1473       C  0.57632544  0.02898795  0.31805367    -0.07000
Cl1474     Cl  0.53280003  0.46594061  0.25097259    -0.50000
C1475       C  0.61004667  0.38403597  0.30888238     0.42500
H1476       H  0.92077238  0.03368222  0.26805892     0.06800
N1477       N  0.61913543  0.02956296  0.28656455    -0.46700
C1478       C  0.63403528  0.31607254  0.14489780     0.80200
N1479       N  0.61650733  0.34297574  0.15740230    -0.78200
C1480       C  0.62655346  0.35346578  0.18207336     0.82600
N1481       N  0.65396098  0.33685532  0.19435660    -0.78100
C1482       C  0.67120190  0.30970715  0.18233331     0.82700
N1483       N  0.66121796  0.29939432  0.15771162    -0.79800
C1484       C  0.89789481  0.07995682  0.35994071     0.80200
N1485       N  0.88015408  0.10569612  0.34643117    -0.78200
C1486       C  0.88691503  0.11219886  0.32059363     0.82600
N1487       N  0.91135741  0.09233983  0.30776728    -0.78100
C1488       C  0.93056228  0.06759890  0.32105485     0.82700
N1489       N  0.92353579  0.06108018  0.34699999    -0.79800
C1490       C  0.63765438  0.11310848  0.35796609     0.80200
N1491       N  0.61976020  0.08606838  0.34597209    -0.78200
C1492       C  0.62789923  0.07578921  0.32103735     0.82600
N1493       N  0.65415276  0.09269385  0.30767282    -0.78100
C1494       C  0.67185753  0.12008635  0.31918523     0.82700
N1495       N  0.66360603  0.13007333  0.34423724    -0.79800
C1496       C  0.67411319  0.07482680  0.13959932     0.80200
N1497       N  0.64733769  0.05821783  0.15288648    -0.78200
C1498       C  0.63800865  0.06855699  0.17769719     0.82600
N1499       N  0.65583754  0.09554509  0.18948827    -0.78100
C1500       C  0.68119664  0.11368896  0.17611719     0.82700
N1501       N  0.69062715  0.10299957  0.15143539    -0.79800
C1502       C  0.86532056  0.29373412  0.19425104     0.42400
N1503       N  0.82274408  0.25797257  0.20338642     0.01300
C1504       C  0.71930470  0.25970016  0.31726169    -0.06600
H1505       H  0.85490483  0.23905277  0.33406893     0.06800
C1506       C  0.84700128  0.12518038  0.28030401    -0.06900
Co1507     Co  0.78437960  0.27997559  0.25256588     0.74200
N1508       N  0.82229299  0.25080568  0.29989686    -0.26100
Co1509     Co  0.78295312  0.21190642  0.29886521     0.74100
C1510       C  0.86313285  0.13505026  0.30537165     0.42500
N1511       N  0.82183691  0.15248645  0.21798648     0.00900
N1512       N  0.82085710  0.17137403  0.29692768     0.01000
N1513       N  0.72041032  0.30248602  0.28570255    -0.47000
H1514       H  0.85548200  0.32693743  0.23176235     0.06800
N1515       N  0.82299567  0.27665543  0.28212809     0.01300
N1516       N  0.74368340  0.17310638  0.29635764     0.01000
C1517       C  0.70014358  0.13840889  0.30477549     0.42600
N1518       N  0.82192600  0.17848468  0.20033264    -0.25600
C1519       C  0.71860705  0.30424624  0.21987366    -0.06500
N1520       N  0.84689962  0.26540838  0.18514183    -0.46700
N1521       N  0.71824623  0.16693617  0.31384633    -0.46900
C1522       C  0.70117730  0.29250822  0.19566266     0.42400
N1523       N  0.74516876  0.27803118  0.28158921     0.01300
N1524       N  0.74517913  0.17880411  0.19970813    -0.25600
N1525       N  0.82331737  0.28068277  0.22333072    -0.26100
N1526       N  0.74411648  0.15383402  0.21810043     0.00900
H1527       H  0.71650886  0.18578491  0.16291124     0.06800
H1528       H  0.71052613  0.10454002  0.26764290     0.06800
N1529       N  0.74505706  0.25261115  0.29967663    -0.26100
N1530       N  0.82095802  0.14892304  0.27682044    -0.25800
N1531       N  0.74534072  0.25828215  0.20343614     0.01300
C1532       C  0.86679193  0.28784152  0.30777397     0.42700
C1533       C  0.84774303  0.17240327  0.18270840    -0.07000
N1534       N  0.74361325  0.14998249  0.27665674    -0.25800
H1535       H  0.85243370  0.10255351  0.26767985     0.06800
N1536       N  0.84925842  0.29949210  0.28614063    -0.47000
H1537       H  0.85355876  0.18870576  0.16559439     0.06800
C1538       C  0.70348786  0.13874345  0.19068769     0.42500
C1539       C  0.84971764  0.30404956  0.21946772    -0.06500
Co1540     Co  0.78379847  0.21855074  0.20115900     0.73800
N1541       N  0.84675755  0.12825576  0.21336722    -0.46700
C1542       C  0.70257853  0.29241633  0.30758041     0.42800
N1543       N  0.71914979  0.26403011  0.18640835    -0.46700
Co1544     Co  0.78264538  0.15065838  0.24738732     0.73900
C1545       C  0.71672756  0.12707387  0.28017231    -0.07000
C1546       C  0.84902241  0.25566921  0.31709523    -0.06600
N1547       N  0.74571252  0.28151822  0.22306338    -0.26100
N1548       N  0.84520244  0.16339475  0.31498128    -0.46900
H1549       H  0.71356310  0.24435898  0.33489392     0.06800
C1550       C  0.72073570  0.17119349  0.18113255    -0.07000
Cl1551     Cl  0.78351733  0.21527180  0.25001325    -0.50000
C1552       C  0.86415510  0.13921765  0.19143961     0.42500
H1553       H  0.71228958  0.32645654  0.23266969     0.06800
N1554       N  0.71968862  0.12937360  0.21341220    -0.46700
N1555       N  0.79249808  0.45213379  0.53783146    -0.36700
N1556       N  0.82995162  0.49259912  0.49734360    -0.57200
N1557       N  0.78671280  0.45733292  0.45722683    -0.36700
N1558       N  0.75290683  0.41333905  0.49786691    -0.57200
C1559       C  0.81778062  0.46834493  0.55245230     0.26900
C1560       C  0.77900626  0.42535773  0.55262184     0.26900
C1561       C  0.81126521  0.47335689  0.44169470     0.26900
C1562       C  0.76921376  0.43327772  0.44214639     0.26900
C1563       C  0.83843584  0.02126642  0.51981845     0.35500
C1564       C  0.83752190  0.02257088  0.47702409     0.35500
C1565       C  0.73616401  0.40114283  0.51967352     0.35500
C1566       C  0.73191713  0.40498281  0.47713474     0.35500
C1567       C  0.82052461  0.45167632  0.57690623    -0.22000
C1568       C  0.79594979  0.42460464  0.57705637    -0.22000
C1569       C  0.80900296  0.45954926  0.41626955    -0.22000
C1570       C  0.78248796  0.43426861  0.41656078    -0.22000
C1571       C  0.85503143  0.05268033  0.51243453    -0.23000
C1572       C  0.85470098  0.05340349  0.48520781    -0.23000
C1573       C  0.70481869  0.38417025  0.51275479    -0.23000
C1574       C  0.70207397  0.38667847  0.48573714    -0.23000
C1575       C  0.83575749  0.49994606  0.54531921    -0.18400
C1576       C  0.74942250  0.40416272  0.54566622    -0.18400
C1577       C  0.74014477  0.41207576  0.45042287    -0.18400
C1578       C  0.83399278  0.50169051  0.44939051    -0.18400
H1579       H  0.83767137  0.45897593  0.59324959     0.14500
H1580       H  0.79057309  0.40711470  0.59361407     0.14500
H1581       H  0.82446377  0.46723163  0.39914833     0.14500
H1582       H  0.77364682  0.41873572  0.39974482     0.14500
H1583       H  0.86673327  0.07256930  0.52528020     0.12800
H1584       H  0.86615927  0.07404012  0.47290357     0.12800
H1585       H  0.68593525  0.37132430  0.52578028     0.12800
H1586       H  0.68060642  0.37617236  0.47379021     0.12800
H1587       H  0.78287102  0.46098695  0.51977734     0.26100
H1588       H  0.78060701  0.46394493  0.47657070     0.26100
N1589       N  0.53905313  0.21192468  0.03756292    -0.36700
N1590       N  0.99493154  0.18014910  0.99762653    -0.57200
N1591       N  0.53904366  0.21350919  0.95701938    -0.36700
N1592       N  0.57737315  0.25297870  0.99776066    -0.57200
C1593       C  0.51222354  0.19782414  0.05189850     0.26900
C1594       C  0.55317847  0.23853477  0.05218024     0.26900
C1595       C  0.51359852  0.19834186  0.94174368     0.26900
C1596       C  0.55621713  0.23797901  0.94201543     0.26900
C1597       C  0.98416988  0.16107860  0.01885064     0.35500
C1598       C  0.98424019  0.16196225  0.97600448     0.35500
C1599       C  0.59599338  0.26268348  0.01950103     0.35500
C1600       C  0.59691566  0.26273851  0.97655733     0.35500
C1601       C  0.50930333  0.21562587  0.07583427    -0.22000
C1602       C  0.53510399  0.24140520  0.07597883    -0.22000
C1603       C  0.51483823  0.21318887  0.91658286    -0.22000
C1604       C  0.54147919  0.23834729  0.91680894    -0.22000
C1605       C  0.96604188  0.13085656  0.01075854    -0.23000
C1606       C  0.96597510  0.13145557  0.98356190    -0.23000
C1607       C  0.62733587  0.27923088  0.01216561    -0.23000
C1608       C  0.62792823  0.27930287  0.98489538    -0.23000
C1609       C  0.98915054  0.17160847  0.04539086    -0.18400
C1610       C  0.58401729  0.25803732  0.04576304    -0.18400
C1611       C  0.58643443  0.25810294  0.94983011    -0.18400
C1612       C  0.98915837  0.17338416  0.94957079    -0.18400
H1613       H  0.49087754  0.21025095  0.09176097     0.14500
H1614       H  0.54043560  0.25972616  0.09204345     0.14500
H1615       H  0.49856509  0.20627406  0.89966436     0.14500
H1616       H  0.54967624  0.25443038  0.90009072     0.14500
H1617       H  0.95393241  0.11067323  0.02313801     0.12800
H1618       H  0.95372249  0.11176027  0.97083841     0.12800
H1619       H  0.64752409  0.29017834  0.02508972     0.12800
H1620       H  0.64878099  0.29028070  0.97262182     0.12800
H1621       H  0.54905639  0.20202161  0.01989218     0.26100
H1622       H  0.54586713  0.20594208  0.97606765     0.26100
N1623       N  0.53132178  0.20804814  0.46307625    -0.36700
N1624       N  0.56892070  0.16718334  0.50340944    -0.57200
N1625       N  0.53419178  0.21021852  0.54344291    -0.36700
N1626       N  0.49302915  0.24789360  0.50282299    -0.57200
C1627       C  0.54596576  0.18199161  0.44822568     0.26900
C1628       C  0.50583632  0.22370546  0.44816879     0.26900
C1629       C  0.54882142  0.18419253  0.55851701     0.26900
C1630       C  0.50893627  0.22635319  0.55816763     0.26900
C1631       C  0.58695607  0.15607651  0.48188168     0.35500
C1632       C  0.58807761  0.15681377  0.52467065     0.35500
C1633       C  0.97968974  0.26258989  0.48021248     0.35500
C1634       C  0.97831972  0.26275425  0.52302466     0.35500
C1635       C  0.52980146  0.18130075  0.42353089    -0.22000
C1636       C  0.50428182  0.20738412  0.42358117    -0.22000
C1637       C  0.53278516  0.18384421  0.58318731    -0.22000
C1638       C  0.50762635  0.21050251  0.58298942    -0.22000
C1639       C  0.61734568  0.13786712  0.48945520    -0.23000
C1640       C  0.61803390  0.13827609  0.51664865    -0.23000
C1641       C  0.96262284  0.29377583  0.48750589    -0.23000
C1642       C  0.96162365  0.29384001  0.51472710    -0.23000
C1643       C  0.57541269  0.16079514  0.45555630    -0.18400
C1644       C  0.98420780  0.25054815  0.45401652    -0.18400
C1645       C  0.98180705  0.25137619  0.54957543    -0.18400
C1646       C  0.57806975  0.16270886  0.55120815    -0.18400
H1647       H  0.53607200  0.16415617  0.40697160     0.14500
H1648       H  0.48719396  0.21420990  0.40707954     0.14500
H1649       H  0.53899940  0.16657808  0.59974928     0.14500
H1650       H  0.49067823  0.21775055  0.59940947     0.14500
H1651       H  0.63679367  0.12537572  0.47672754     0.12800
H1652       H  0.63821835  0.12627763  0.52907539     0.12800
H1653       H  0.95151145  0.31395604  0.47457734     0.12800
H1654       H  0.94966786  0.31423470  0.52695790     0.12800
H1655       H  0.54021605  0.21646828  0.48134074     0.26100
H1656       H  0.54274845  0.21832616  0.52497380     0.26100
N1657       N  0.77790000  0.45628907  0.96162473    -0.36700
N1658       N  0.81579895  0.41424058  0.00090610    -0.57200
N1659       N  0.78260694  0.45791876  0.04237897    -0.36700
N1660       N  0.74129324  0.49653342  0.00303581    -0.57200
C1661       C  0.79400305  0.43234740  0.94566384     0.26900
C1662       C  0.75391888  0.47417783  0.94677306     0.26900
C1663       C  0.79710864  0.43112361  0.05677462     0.26900
C1664       C  0.75827113  0.47444772  0.05783849     0.26900
C1665       C  0.83344910  0.40327890  0.97910239     0.35500
C1666       C  0.83495690  0.40312713  0.02196442     0.35500
C1667       C  0.73761412  0.01593213  0.98056253     0.35500
C1668       C  0.73883332  0.01820776  0.02337492     0.35500
C1669       C  0.78029375  0.43531299  0.92025276    -0.22000
C1670       C  0.75500738  0.46150142  0.92095524    -0.22000
C1671       C  0.78202190  0.43077227  0.08180547    -0.22000
C1672       C  0.75737932  0.45794228  0.08242673    -0.22000
C1673       C  0.86355136  0.38436755  0.98632849    -0.23000
C1674       C  0.86452299  0.38426524  0.01352251    -0.23000
C1675       C  0.70770742  0.03476590  0.98819367    -0.23000
C1676       C  0.70852582  0.03631310  0.01537492    -0.23000
C1677       C  0.82240632  0.40954447  0.95276102    -0.18400
C1678       C  0.74756155  0.00885953  0.95418130    -0.18400
C1679       C  0.74972834  0.01349852  0.04995665    -0.18400
C1680       C  0.82563681  0.40896187  0.04870483    -0.18400
H1681       H  0.78805928  0.42058150  0.90278998     0.14500
H1682       H  0.73995196  0.47069739  0.90402229     0.14500
H1683       H  0.78850730  0.41309757  0.09806919     0.14500
H1684       H  0.74122857  0.46525786  0.09927147     0.14500
H1685       H  0.88284109  0.37206077  0.97336996     0.12800
H1686       H  0.88477383  0.37187591  0.02567324     0.12800
H1687       H  0.68741713  0.04611384  0.97553218     0.12800
H1688       H  0.68892315  0.04906530  0.02782586     0.12800
H1689       H  0.78439215  0.46161563  0.98108515     0.26100
H1690       H  0.79087994  0.46613443  0.02377799     0.26100
C1691       C  0.89028508  0.36383274  0.85579810     0.80200
N1692       N  0.87421456  0.33633951  0.84285312    -0.78200
C1693       C  0.88584559  0.32531379  0.81883086     0.82600
N1694       N  0.91388167  0.34188775  0.80739308    -0.78100
C1695       C  0.92985658  0.36958149  0.81985506     0.82700
N1696       N  0.91804316  0.38038060  0.84391842    -0.79800
C1697       C  0.92556314  0.09948953  0.86056769     0.80200
N1698       N  0.94156453  0.07183998  0.84798334    -0.78200
C1699       C  0.93265722  0.06301786  0.82283280     0.82600
N1700       N  0.90787551  0.08249101  0.80981991    -0.78100
C1701       C  0.89043996  0.10914388  0.82231205     0.82700
N1702       N  0.89960888  0.11785810  0.84749041    -0.79800
C1703       C  0.68817097  0.06459206  0.85736986     0.80200
N1704       N  0.66062863  0.04831554  0.84477481    -0.78200
C1705       C  0.65017521  0.05940082  0.82035245     0.82600
N1706       N  0.66740953  0.08688926  0.80839631    -0.78100
C1707       C  0.69540125  0.10274974  0.82060512     0.82700
N1708       N  0.70574620  0.09132086  0.84488655    -0.79800
C1709       C  0.65458600  0.32592049  0.86018112     0.80200
N1710       N  0.68124026  0.30922937  0.84693499    -0.78200
C1711       C  0.68908769  0.31834272  0.82160226     0.82600
N1712       N  0.66972294  0.34388480  0.80912662    -0.78100
C1713       C  0.64408720  0.36183230  0.82245787     0.82700
N1714       N  0.63622068  0.35227773  0.84768901    -0.79800
C1715       C  0.65100347  0.09816232  0.64014536     0.80200
N1716       N  0.67727160  0.11669664  0.65277613    -0.78200
C1717       C  0.68559714  0.10947523  0.67844897     0.82600
N1718       N  0.66715707  0.08407584  0.69171346    -0.78100
C1719       C  0.64208649  0.06456144  0.67909019     0.82700
N1720       N  0.63369138  0.07213348  0.65362830    -0.79800
C1721       C  0.89204748  0.06596897  0.64264303     0.80200
N1722       N  0.87533760  0.09340821  0.65484345    -0.78200
C1723       C  0.88453212  0.10330164  0.67967974     0.82600
N1724       N  0.91086146  0.08568744  0.69264847    -0.78100
C1725       C  0.92726223  0.05768083  0.68080279     0.82700
N1726       N  0.91755351  0.04777293  0.65598228    -0.79800
C1727       C  0.86814442  0.29574716  0.80522220     0.42400
N1728       N  0.83223890  0.25310794  0.79652417     0.01300
C1729       C  0.83229976  0.14873387  0.68311447    -0.06600
H1730       H  0.81857273  0.28293097  0.66454745     0.06800
C1731       C  0.70119711  0.27900506  0.71941875    -0.06900
Co1732     Co  0.85397228  0.21352276  0.74782570     0.74200
N1733       N  0.82648992  0.25201010  0.70022481    -0.26100
Co1734     Co  0.78644552  0.21349036  0.70090545     0.74100
C1735       C  0.71259509  0.29645900  0.69528006     0.42500
N1736       N  0.72768431  0.25319612  0.78070525     0.00900
N1737       N  0.74718500  0.25252601  0.70293767     0.01000
N1738       N  0.87554330  0.14943640  0.71442688    -0.47000
H1739       H  0.90216783  0.28394751  0.76848547     0.06800
N1740       N  0.85150602  0.25247061  0.71856607     0.01300
N1741       N  0.74623790  0.17480082  0.70261607     0.01000
C1742       C  0.70894095  0.13334411  0.69354345     0.42600
N1743       N  0.75290665  0.25318030  0.79885815    -0.25600
C1744       C  0.87813215  0.14851268  0.78138056    -0.06500
N1745       N  0.83888535  0.27861558  0.81399005    -0.46700
N1746       N  0.73764194  0.15101562  0.68419554    -0.46900
C1747       C  0.86796330  0.13302657  0.80666972     0.42400
N1748       N  0.85155501  0.17463242  0.71856687     0.01300
N1749       N  0.75281065  0.17565329  0.79952973    -0.25600
N1750       N  0.85559677  0.25241921  0.77708503    -0.26100
N1751       N  0.72724591  0.17512505  0.78160876     0.00900
H1752       H  0.76318503  0.14362421  0.83420021     0.06800
H1753       H  0.67690049  0.14396652  0.73134149     0.06800
N1754       N  0.82603925  0.17479221  0.70057502    -0.26100
N1755       N  0.72410052  0.25213094  0.72255720    -0.25800
N1756       N  0.83215134  0.17550400  0.79729401     0.01300
C1757       C  0.86569712  0.29493895  0.69229852     0.42700
C1758       C  0.74611942  0.27927283  0.81628383    -0.07000
N1759       N  0.72386705  0.17464530  0.72272395    -0.25800
H1760       H  0.67891747  0.28497468  0.73214285     0.06800
N1761       N  0.87555212  0.27756356  0.71446950    -0.47000
H1762       H  0.76125770  0.28484154  0.83401948     0.06800
C1763       C  0.71450291  0.13220168  0.80784296     0.42500
C1764       C  0.87936118  0.27851556  0.78083894    -0.06500
Co1765     Co  0.79254802  0.21439610  0.79865607     0.73800
N1766       N  0.70362725  0.27833647  0.78465657    -0.46700
C1767       C  0.86498400  0.13209962  0.69246540     0.42800
N1768       N  0.83972013  0.15147933  0.81576935    -0.46700
Co1769     Co  0.72512004  0.21365187  0.75193922     0.73900
C1770       C  0.69973800  0.14899764  0.71892798    -0.07000
C1771       C  0.83354840  0.27765690  0.68242166    -0.06600
N1772       N  0.85476348  0.17482610  0.77735609    -0.26100
N1773       N  0.74107850  0.27866611  0.68584038    -0.46900
H1774       H  0.81652021  0.14290305  0.66573329     0.06800
C1775       C  0.74699110  0.14943206  0.81703695    -0.07000
Cl1776     Cl  0.78953698  0.21365910  0.74981793    -0.50000
C1777       C  0.71377007  0.29629776  0.80647865     0.42500
H1778       H  0.90090228  0.14269778  0.76909643     0.06800
N1779       N  0.70362674  0.14955456  0.78587748    -0.46700
C1780       C  0.92419232  0.32790549  0.63914936     0.80200
N1781       N  0.89736852  0.31081418  0.65201017    -0.78200
C1782       C  0.89002807  0.31799711  0.67770642     0.82600
N1783       N  0.91004729  0.34205615  0.69101435    -0.78100
C1784       C  0.93570611  0.36059743  0.67822281     0.82700
N1785       N  0.94292246  0.35314758  0.65250231    -0.79800
C1786       C  0.68602792  0.36149746  0.64403826     0.80200
N1787       N  0.65907216  0.37867617  0.65657556    -0.78200
C1788       C  0.64972505  0.36943982  0.68161570     0.82600
N1789       N  0.66728769  0.34278655  0.69417760    -0.78100
C1790       C  0.69444817  0.32582461  0.68202342     0.82700
N1791       N  0.70369232  0.33525605  0.65717689    -0.79800
C1792       C  0.95967712  0.38333703  0.69350635     0.42400
N1793       N  0.00166931  0.41993392  0.70225412     0.01300
C1794       C  0.60368769  0.41902078  0.81827521    -0.06600
H1795       H  0.97073115  0.43706377  0.83342147     0.06800
C1796       C  0.97182513  0.04991386  0.78266578    -0.06900
Co1797     Co  0.53921782  0.39924069  0.75324054     0.74200
N1798       N  0.00245350  0.42631320  0.79884743    -0.26100
Co1799     Co  0.53908737  0.46648918  0.79995266     0.74100
C1800       C  0.95573462  0.03946395  0.80757253     0.42500
N1801       N  0.99792450  0.02500633  0.72080594     0.00900
N1802       N  0.99931719  0.00447678  0.79935854     0.01000
N1803       N  0.60354303  0.37744062  0.78592674    -0.47000
H1804       H  0.97053646  0.35050806  0.73107766     0.06800
N1805       N  0.00205081  0.40057362  0.78105945     0.01300
N1806       N  0.57800447  0.00558505  0.79827801     0.01000
C1807       C  0.62041951  0.04176244  0.80689868     0.42600
N1808       N  0.99801381  0.99919910  0.70308010    -0.25600
C1809       C  0.60391234  0.37574701  0.71973403    -0.06500
N1810       N  0.97744796  0.41195837  0.68409448    -0.46700
N1811       N  0.60346332  0.01233835  0.81573088    -0.46900
C1812       C  0.62025818  0.38716735  0.69509951     0.42400
N1813       N  0.57866680  0.40179055  0.78195731     0.01300
N1814       N  0.57784873  0.00000957  0.70197035    -0.25600
N1815       N  0.00166210  0.39727366  0.72227752    -0.26100
N1816       N  0.57775892  0.02519420  0.72019354     0.00900
H1817       H  0.60886917  0.99230896  0.66650062     0.06800
H1818       H  0.60858027  0.07567260  0.76993589     0.06800
N1819       N  0.57817338  0.42660537  0.80045536    -0.26100
N1820       N  0.99870154  0.02715815  0.77935493    -0.25800
N1821       N  0.57683402  0.42191039  0.70378153     0.01300
C1822       C  0.95946510  0.38810265  0.80731117     0.42700
C1823       C  0.97177580  0.00487099  0.68570363    -0.07000
N1824       N  0.57709415  0.02902138  0.77876370    -0.25800
H1825       H  0.96583304  0.07248759  0.77007314     0.06800
N1826       N  0.97659580  0.37692555  0.78540734    -0.47000
H1827       H  0.96602933  0.98866840  0.66853603     0.06800
C1828       C  0.61991595  0.03991948  0.69406532     0.42500
C1829       C  0.97574750  0.37340429  0.71863017    -0.06500
Co1830     Co  0.53755197  0.46104158  0.70211377     0.73800
N1831       N  0.97262005  0.04888879  0.71640402    -0.46700
C1832       C  0.62086295  0.38673047  0.80820855     0.42800
N1833       N  0.60213350  0.41581757  0.68610916    -0.46700
Co1834     Co  0.53854293  0.02689500  0.74907662     0.73900
C1835       C  0.60309631  0.05292033  0.78245862    -0.07000
C1836       C  0.97645174  0.42069934  0.81634786    -0.06600
N1837       N  0.57721661  0.39870016  0.72345255    -0.26100
N1838       N  0.97457395  0.01162120  0.81728363    -0.46900
H1839       H  0.60881084  0.43357885  0.83635738     0.06800
C1840       C  0.60334860  0.00733017  0.68429532    -0.05000
Cl1841     Cl  0.53824522  0.46387031  0.75102056    -0.50000
C1842       C  0.95507036  0.03770502  0.69462504     0.42500
H1843       H  0.61031531  0.35325293  0.73229174     0.06800
N1844       N  0.60234386  0.04975740  0.71608309    -0.46700
C1845       C  0.72846054  0.06054909  0.92684265    -0.05800
C1846       C  0.72631612  0.02389383  0.93197479     0.00100
C1847       C  0.70745318  0.00160457  0.91423354    -0.08500
C1848       C  0.69583960  0.01587070  0.89005754    -0.05900
C1849       C  0.69981136  0.05220527  0.88399003     0.00100
C1850       C  0.71424419  0.07544170  0.90351443    -0.08400
C1851       C  0.71373938  0.11573784  0.90042676     0.62000
H1852       H  0.74218330  0.07733532  0.94099266     0.12700
H1853       H  0.68347107  0.99822541  0.87576336     0.12700
C1854       C  0.69886730  0.96275751  0.91976821     0.62200
F1855       F  0.72084449  0.13276253  0.92415639    -0.23000
F1856       F  0.68050529  0.12674342  0.89197747    -0.20300
F1857       F  0.73914352  0.12634082  0.88236370    -0.20000
F1858       F  0.66304512  0.95705451  0.91535430    -0.20000
F1859       F  0.70604522  0.95260957  0.94555264    -0.20300
F1860       F  0.71815810  0.94141454  0.90277433    -0.23000
C1861       C  0.87117028  0.41482893  0.92049829    -0.05800
C1862       C  0.84337737  0.39420864  0.93063259     0.00100
C1863       C  0.83307803  0.36265623  0.91758852    -0.08500
C1864       C  0.85004824  0.35363410  0.89384747    -0.05900
C1865       C  0.87679938  0.37510265  0.88246930     0.00100
C1866       C  0.88848974  0.40600029  0.89668840    -0.08400
C1867       C  0.91831776  0.43034206  0.88729277     0.62000
H1868       H  0.87822491  0.43888181  0.93113401     0.12700
H1869       H  0.84170741  0.32964074  0.88376044     0.12700
C1870       C  0.80388385  0.33889842  0.92849643     0.62200
F1871       F  0.92488154  0.45788670  0.90490834    -0.23000
F1872       F  0.90938820  0.44563230  0.86325836    -0.20300
F1873       F  0.94946892  0.41107941  0.88491118    -0.20000
F1874       F  0.77223433  0.35745897  0.92978189    -0.20000
F1875       F  0.81312832  0.32747361  0.95359945    -0.20300
F1876       F  0.79838401  0.30908313  0.91285525    -0.23000
C1877       C  0.64390282  0.14690184  0.60720269    -0.05800
C1878       C  0.63626379  0.11140277  0.61438462     0.00100
C1879       C  0.61181378  0.09164333  0.59847102    -0.08500
C1880       C  0.59332762  0.10942057  0.57811165    -0.05900
C1881       C  0.59931292  0.14546164  0.57252733     0.00100
C1882       C  0.62578487  0.16430312  0.58657110    -0.08400
C1883       C  0.63404272  0.20304750  0.58031987     0.62000
H1884       H  0.66289780  0.16189045  0.61879785     0.12700
H1885       H  0.57346451  0.09538844  0.56658214     0.12700
C1886       C  0.60459300  0.05214434  0.60244022     0.62200
F1887       F  0.66320356  0.21526319  0.59436901    -0.23000
F1888       F  0.60522333  0.22409672  0.58681669    -0.20300
F1889       F  0.64132305  0.20690567  0.55364756    -0.20000
F1890       F  0.58034249  0.04741865  0.62267622    -0.20000
F1891       F  0.63574243  0.03434426  0.60836591    -0.20300
F1892       F  0.59074697  0.03679915  0.57971921    -0.23000
C1893       C  0.91752211  0.28465178  0.60212117    -0.05800
C1894       C  0.93673353  0.31353357  0.61303632     0.00100
C1895       C  0.96871215  0.32450518  0.60016947    -0.08500
C1896       C  0.98204485  0.30334667  0.57944909    -0.05900
C1897       C  0.96427352  0.27287620  0.57052179     0.00100
C1898       C  0.93066694  0.26417375  0.58101697    -0.08400
C1899       C  0.90924542  0.23276101  0.57065239     0.62000
H1900       H  0.89254777  0.27690544  0.61097184     0.12700
H1901       H  0.51988766  0.30646233  0.57837027     0.12700
C1902       C  0.98934341  0.35788287  0.60775049     0.62200
F1903       F  0.87500537  0.23267435  0.58061310    -0.23000
F1904       F  0.92533235  0.20111767  0.57793622    -0.20300
F1905       F  0.90691316  0.23427504  0.54335944    -0.20000
F1906       F  0.00583937  0.35310445  0.63197935    -0.20000
F1907       F  0.96662786  0.38685940  0.60877105    -0.20300
F1908       F  0.53839727  0.34792809  0.60940443    -0.23000
C1909       C  0.60425835  0.31281095  0.92522908    -0.05800
C1910       C  0.60775560  0.27586555  0.92869003     0.00100
C1911       C  0.63071519  0.25640470  0.91192158    -0.08500
C1912       C  0.64707136  0.27423177  0.89066153    -0.05900
C1913       C  0.64139550  0.31081989  0.88575402     0.00100
C1914       C  0.62116214  0.33085314  0.90426200    -0.08400
C1915       C  0.61771897  0.37109839  0.90238636     0.62000
H1916       H  0.58734134  0.32734629  0.93877663     0.12700
H1917       H  0.66310323  0.25903613  0.87695171     0.12700
C1918       C  0.63749803  0.21685158  0.91625978     0.62200
F1919       F  0.60616011  0.38573719  0.92599075    -0.23000
F1920       F  0.59350409  0.38015168  0.88289270    -0.20300
F1921       F  0.65043774  0.38590274  0.89659606    -0.20000
F1922       F  0.60708386  0.19756035  0.91088259    -0.20000
F1923       F  0.64758267  0.21084089  0.94222887    -0.20300
F1924       F  0.66424756  0.20420261  0.90002635    -0.23000
C1925       C  0.98728228  0.12237174  0.91884368    -0.05800
C1926       C  0.97077487  0.15314316  0.92834362     0.00100
C1927       C  0.93769938  0.16386526  0.91792515    -0.08500
C1928       C  0.92303501  0.14415002  0.89694027    -0.05900
C1929       C  0.94041947  0.11423394  0.88592296     0.00100
C1930       C  0.97271584  0.10217037  0.89803367    -0.08400
C1931       C  0.99265180  0.06876175  0.88947302     0.62000
H1932       H  0.01231673  0.11471376  0.92779204     0.12700
H1933       H  0.89810402  0.15292351  0.88849311     0.12700
C1934       C  0.91832914  0.19629742  0.92874761     0.62200
F1935       F  0.52866998  0.06491361  0.89923276    -0.23000
F1936       F  0.00679437  0.07354853  0.86446461    -0.20300
F1937       F  0.96998072  0.03972625  0.88965365    -0.20000
F1938       F  0.93817275  0.22674589  0.92444683    -0.20000
F1939       F  0.91289190  0.19225067  0.95564450    -0.20300
F1940       F  0.88557324  0.20108242  0.91678027    -0.23000
C1941       C  0.88726037  0.02558367  0.57327401    -0.05800
C1942       C  0.85079839  0.02898477  0.56823143     0.00100
C1943       C  0.82903050  0.04801807  0.58606206    -0.08500
C1944       C  0.84390016  0.05999404  0.60985369    -0.05900
C1945       C  0.87989266  0.05447047  0.61602667     0.00100
C1946       C  0.90252738  0.03872021  0.59680103    -0.08400
C1947       C  0.94249191  0.03634723  0.60059314     0.62000
H1948       H  0.90342390  0.01139939  0.55903044     0.12700
H1949       H  0.82692877  0.07280036  0.62427206     0.12700
C1950       C  0.79013229  0.05537974  0.58010332     0.62200
F1951       F  0.95958863  0.02717783  0.57733790    -0.23000
F1952       F  0.95057082  0.01069801  0.61932062    -0.20300
F1953       F  0.95565930  0.06905147  0.60865812    -0.20000
F1954       F  0.77087224  0.02403530  0.58083284    -0.20000
F1955       F  0.78694755  0.07060813  0.55526288    -0.20300
F1956       F  0.77537198  0.07868872  0.59826500    -0.23000
C1957       C  0.70046262  0.40823122  0.57732682    -0.05800
C1958       C  0.72891953  0.38816442  0.56759516     0.00100
C1959       C  0.73955518  0.35679929  0.58083566    -0.08500
C1960       C  0.72373712  0.34882753  0.60511565    -0.05900
C1961       C  0.69718849  0.37056858  0.61646335     0.00100
C1962       C  0.68368827  0.39979403  0.60136492    -0.08400
C1963       C  0.65236971  0.42256977  0.61002918     0.62000
H1964       H  0.69253090  0.43171337  0.56628044     0.12700
H1965       H  0.73316318  0.32533818  0.61547978     0.12700
C1966       C  0.76792050  0.33134556  0.57092249     0.62200
F1967       F  0.64297156  0.44747258  0.59098065    -0.23000
F1968       F  0.66084090  0.44101783  0.63287029    -0.20300
F1969       F  0.62303801  0.40111226  0.61429778    -0.20000
F1970       F  0.79581301  0.33056549  0.58878973    -0.20000
F1971       F  0.78109952  0.34050793  0.54633533    -0.20300
F1972       F  0.75362335  0.29743039  0.56909202    -0.23000
C1973       C  0.71504280  0.08031121  0.10090204    -0.05800
C1974       C  0.68945790  0.05957717  0.11447767     0.00100
C1975       C  0.68252887  0.02422580  0.10508052    -0.08500
C1976       C  0.70220118  0.01123791  0.08345159    -0.05900
C1977       C  0.72872839  0.03136056  0.07120620     0.00100
C1978       C  0.73518176  0.06664300  0.07969658    -0.08400
C1979       C  0.76398759  0.08921921  0.06695252     0.62000
H1980       H  0.72014755  0.10725316  0.10754336     0.12700
H1981       H  0.69788872  0.98441607  0.07619655     0.12700
C1982       C  0.65585427  0.99908171  0.11788832     0.62200
F1983       F  0.76657839  0.12260861  0.07849386    -0.23000
F1984       F  0.75665848  0.09391616  0.04035469    -0.20300
F1985       F  0.79649210  0.07240939  0.06961889    -0.20000
F1986       F  0.62232076  0.01411741  0.11733188    -0.20000
F1987       F  0.66594474  0.99193477  0.14370276    -0.20300
F1988       F  0.65370766  0.96671202  0.10480838    -0.23000
C1989       C  0.60345607  0.10144487  0.39892910    -0.05800
C1990       C  0.62739828  0.12399286  0.38539780     0.00100
C1991       C  0.63866646  0.15617882  0.39798917    -0.08500
C1992       C  0.62228500  0.16602389  0.42190088    -0.05900
C1993       C  0.59622421  0.14478633  0.43375382     0.00100
C1994       C  0.58750454  0.11137164  0.42285138    -0.08400
C1995       C  0.56065490  0.08688897  0.43603095     0.62000
H1996       H  0.59616016  0.07614474  0.39022237     0.12700
H1997       H  0.62852031  0.19133095  0.43113196     0.12700
C1998       C  0.66701561  0.18075133  0.38664369     0.62200
F1999       F  0.55627858  0.05533292  0.42219444    -0.23000
F2000       F  0.52794724  0.10348582  0.43750215    -0.20300
F2001       F  0.57204570  0.07853817  0.46131450    -0.20000
F2002       F  0.65551143  0.19523324  0.36293035    -0.20000
F2003       F  0.69820625  0.16195328  0.38284475    -0.20300
F2004       F  0.67478163  0.20875583  0.40352310    -0.23000
C2005       C  0.90041802  0.03656227  0.39725483    -0.05800
C2006       C  0.88450004  0.06728333  0.38628861     0.00100
C2007       C  0.85426553  0.08211814  0.39940704    -0.08500
C2008       C  0.83889620  0.06289449  0.42041703    -0.05900
C2009       C  0.85341712  0.03087612  0.42969623     0.00100
C2010       C  0.88573344  0.01834501  0.41892242    -0.08400
C2011       C  0.90562391  0.98573468  0.42893598     0.62000
H2012       H  0.92426167  0.02570728  0.38838863     0.12700
H2013       H  0.81470923  0.07239200  0.42961048     0.12700
C2014       C  0.83751934  0.11767431  0.39177361     0.62200
F2015       F  0.90740214  0.96063637  0.40893672    -0.23000
F2016       F  0.89015623  0.96995812  0.45078466    -0.20300
F2017       F  0.93978140  0.99561849  0.43588380    -0.20000
F2018       F  0.81917131  0.11441606  0.36814706    -0.20000
F2019       F  0.86354499  0.14357251  0.38954123    -0.20300
F2020       F  0.81359289  0.12934910  0.41065327    -0.23000
C2021       C  0.59885264  0.31035302  0.07347787    -0.05800
C2022       C  0.60386325  0.27397201  0.06834430     0.00100
C2023       C  0.62066660  0.25228082  0.08764082    -0.08500
C2024       C  0.62974012  0.26736150  0.11209339    -0.05900
C2025       C  0.62341652  0.30346945  0.11796639     0.00100
C2026       C  0.60845007  0.32574293  0.09795739    -0.08400
C2027       C  0.60248991  0.36543418  0.10198011     0.62000
H2028       H  0.58544176  0.32621544  0.05856964     0.12700
H2029       H  0.64134599  0.25017148  0.12706510     0.12700
C2030       C  0.62811147  0.21273534  0.08408226     0.62200
F2031       F  0.59216580  0.38220812  0.07876733    -0.23000
F2032       F  0.63362444  0.38133071  0.11049250    -0.20300
F2033       F  0.57598078  0.37086756  0.12044478    -0.20000
F2034       F  0.62283378  0.20107731  0.05843017    -0.20000
F2035       F  0.60624648  0.19344535  0.10077869    -0.20300
F2036       F  0.66310088  0.20570330  0.09070876    -0.23000
C2037       C  0.97670024  0.11467563  0.10661401    -0.05800
C2038       C  0.94133169  0.12265658  0.11350540     0.00100
C2039       C  0.91976462  0.14130270  0.09488346    -0.08500
C2040       C  0.93595245  0.15593834  0.07219916    -0.05900
C2041       C  0.97209579  0.15070534  0.06694789     0.00100
C2042       C  0.99225483  0.12785845  0.08335611    -0.08400
C2043       C  0.52969813  0.11083309  0.07554089     0.62000
H2044       H  0.99287738  0.09920007  0.12012909     0.12700
H2045       H  0.92072995  0.17260470  0.05880803     0.12700
C2046       C  0.88002592  0.14601418  0.09845804     0.62200
F2047       F  0.54181006  0.08457185  0.09261328    -0.23000
F2048       F  0.55334855  0.13900266  0.07643785    -0.20300
F2049       F  0.52927019  0.09681368  0.05023507    -0.20000
F2050       F  0.87361952  0.17337865  0.11611155    -0.20000
F2051       F  0.86484586  0.11477351  0.10769058    -0.20300
F2052       F  0.86353901  0.15437745  0.07471660    -0.23000
C2053       C  0.67371354  0.39639643  0.39509169    -0.05800
C2054       C  0.68149412  0.36086163  0.38799776     0.00100
C2055       C  0.70522757  0.34084721  0.40431853    -0.08500
C2056       C  0.72362794  0.35862269  0.42462093    -0.05900
C2057       C  0.71799594  0.39479313  0.42981404     0.00100
C2058       C  0.69140270  0.41363835  0.41594693    -0.08400
C2059       C  0.68227543  0.45195837  0.42293111     0.62000
H2060       H  0.65492531  0.41148699  0.38334798     0.12700
H2061       H  0.74321851  0.34455146  0.43640442     0.12700
C2062       C  0.71085141  0.30092382  0.40125045     0.62200
F2063       F  0.65314529  0.46418499  0.40883243    -0.23000
F2064       F  0.71074086  0.47394343  0.41730825    -0.20300
F2065       F  0.67438595  0.45441926  0.44960191    -0.20000
F2066       F  0.73239480  0.29394311  0.37975585    -0.20000
F2067       F  0.67842836  0.28414807  0.39803647    -0.20300
F2068       F  0.72704592  0.28630106  0.42340309    -0.23000
C2069       C  0.84243828  0.35564356  0.07546108    -0.05800
C2070       C  0.84771279  0.39180212  0.06963723     0.00100
C2071       C  0.87442649  0.41103964  0.08313151    -0.08500
C2072       C  0.89248341  0.39440800  0.10414576    -0.05900
C2073       C  0.88529459  0.35892411  0.11165007     0.00100
C2074       C  0.86176870  0.33838210  0.09566437    -0.08400
C2075       C  0.85660464  0.29851968  0.09929040     0.62000
H2076       H  0.82285790  0.34094828  0.06411569     0.12700
H2077       H  0.91115512  0.40990596  0.11567173     0.12700
C2078       C  0.88337384  0.44921157  0.07553805     0.62200
F2079       F  0.84737566  0.28258555  0.07552718    -0.23000
F2080       F  0.82975645  0.29236511  0.11736632    -0.20300
F2081       F  0.88760381  0.28241738  0.10793468    -0.20000
F2082       F  0.85476435  0.47115238  0.08069521    -0.20000
F2083       F  0.89141915  0.45099168  0.04886314    -0.20300
F2084       F  0.91231271  0.46203618  0.08952251    -0.23000
C2085       C  0.99246010  0.29332434  0.41773982    -0.05800
C2086       C  0.96895709  0.27135706  0.43175437     0.00100
C2087       C  0.93431041  0.26556639  0.42187229    -0.08500
C2088       C  0.92489509  0.28115739  0.39763845    -0.05900
C2089       C  0.94884043  0.30178841  0.38261538     0.00100
C2090       C  0.98339420  0.30851166  0.39313183    -0.08400
C2091       C  0.01148268  0.32994494  0.37842937     0.62000
H2092       H  0.01886444  0.29701200  0.42583921     0.12700
H2093       H  0.89836945  0.27622650  0.39011247     0.12700
C2094       C  0.90669298  0.24199171  0.43506525     0.62200
F2095       F  0.04379208  0.32995176  0.39158904    -0.23000
F2096       F  0.00066998  0.36504848  0.37601603    -0.20300
F2097       F  0.01712150  0.31543201  0.35362528    -0.20000
F2098       F  0.91690849  0.22953569  0.45965416    -0.20000
F2099       F  0.41989249  0.21633391  0.44422447    -0.20300
F2100       F  0.87557210  0.26113859  0.43821303    -0.23000
C2101       C  0.93743089  0.81631751  0.35678538     0.80200
N2102       N  0.95318336  0.84295175  0.34289839    -0.78200
C2103       C  0.94120588  0.85220102  0.31847962     0.82600
N2104       N  0.91293057  0.83504024  0.30786424    -0.78100
C2105       C  0.89698598  0.80830370  0.32142619     0.82700
N2106       N  0.90928346  0.79899059  0.34573715    -0.79800
C2107       C  0.89966185  0.84499866  0.14023245     0.80200
N2108       N  0.88243841  0.82014023  0.15489121    -0.78200
C2109       C  0.89069715  0.81472833  0.18068095     0.82600
N2110       N  0.91612384  0.83492026  0.19229194    -0.78100
C2111       C  0.93481996  0.85875538  0.17770112     0.82700
N2112       N  0.92627278  0.86402647  0.15188093    -0.79800
C2113       C  0.66922029  0.85328807  0.36244240     0.80200
N2114       N  0.68868127  0.82747915  0.35026441    -0.78200
C2115       C  0.68225989  0.81889350  0.32454553     0.82600
N2116       N  0.65705419  0.83702412  0.31072882    -0.78100
C2117       C  0.63657787  0.86175661  0.32299720     0.82700
N2118       N  0.64297187  0.86998437  0.34867849    -0.79800
C2119       C  0.93086360  0.61339050  0.14195956     0.80200
N2120       N  0.90502493  0.63109972  0.15523022    -0.78200
C2121       C  0.89507470  0.62077953  0.17991045     0.82600
N2122       N  0.91154964  0.59274358  0.19176048    -0.78100
C2123       C  0.93820153  0.57553620  0.17897088     0.82700
N2124       N  0.94766043  0.58590746  0.15423823    -0.79800
C2125       C  0.95836088  0.88104800  0.30388491     0.42400
N2126       N  0.49169827  0.92497614  0.29701858     0.01300
C2127       C  0.49066437  0.53085758  0.18338946    -0.06600
H2128       H  0.50694418  0.89601623  0.16513382     0.06800
C2129       C  0.62488118  0.90258906  0.21851984    -0.06900
Co2130     Co  0.96918834  0.96474261  0.24675969     0.74200
N2131       N  0.49801954  0.92703794  0.20055222    -0.26100
Co2132     Co  0.53740664  0.96614690  0.20140763     0.74100
C2133       C  0.61460977  0.88650638  0.19346711     0.42500
N2134       N  0.59658719  0.92598236  0.28135983     0.00900
N2135       N  0.57760074  0.92783045  0.20288452     0.01000
N2136       N  0.94650241  0.52801113  0.21322331    -0.47000
H2137       H  0.92348884  0.89171434  0.26721614     0.06800
N2138       N  0.97209866  0.92638377  0.21735964     0.01300
N2139       N  0.57691882  0.00523428  0.20342165     0.01000
C2140       C  0.61432613  0.54531163  0.19445375     0.42600
N2141       N  0.57139769  0.92566384  0.29951439    -0.25600
C2142       C  0.94333651  0.52740023  0.27990206    -0.06500
N2143       N  0.48481784  0.89980483  0.31474220    -0.46700
N2144       N  0.58526360  0.52804920  0.18527231    -0.46900
C2145       C  0.95336735  0.54311617  0.30514332     0.42400
N2146       N  0.97091968  0.00433410  0.21764367     0.01300
N2147       N  0.57037854  0.00299503  0.30038561    -0.25600
N2148       N  0.96873947  0.92521297  0.27585388    -0.26100
N2149       N  0.59571014  0.00390015  0.28234571     0.00900
H2150       H  0.55986357  0.53611152  0.33544618     0.06800
H2151       H  0.64634597  0.53437914  0.23233042     0.06800
N2152       N  0.49717115  0.00442754  0.20096831    -0.26100
N2153       N  0.60060216  0.92799149  0.22263996    -0.25800
N2154       N  0.49081819  0.00246854  0.29807030     0.01300
C2155       C  0.95835238  0.88376213  0.19122365     0.42700
C2156       C  0.57889736  0.89999789  0.31722032    -0.07000
N2157       N  0.59950345  0.00543097  0.22345930    -0.25800
H2158       H  0.64768107  0.89716618  0.23095027     0.06800
N2159       N  0.94854931  0.90081798  0.21344149    -0.47000
H2160       H  0.56405308  0.89444988  0.33507102     0.06800
C2161       C  0.60804965  0.54733404  0.30862580     0.42500
C2162       C  0.94615934  0.89801732  0.27953271    -0.06500
Co2163     Co  0.53106025  0.96396689  0.29933250     0.73800
N2164       N  0.62131542  0.90151907  0.28565274    -0.46700
C2165       C  0.95738203  0.54619397  0.19164975     0.42800
N2166       N  0.48210077  0.52736497  0.31711649    -0.46700
Co2167     Co  0.59861064  0.96587972  0.25255323     0.73900
C2168       C  0.62325790  0.52980239  0.22002168    -0.07000
C2169       C  0.49163405  0.90115640  0.18281856    -0.06600
N2170       N  0.96773248  0.00282155  0.27643745    -0.26100
N2171       N  0.58518224  0.90346456  0.18471502    -0.46900
H2172       H  0.50660256  0.53600517  0.16600590     0.06800
C2173       C  0.57576019  0.53015315  0.31819155    -0.07000
Cl2174     Cl  0.53418699  0.96528039  0.25036915    -0.50000
C2175       C  0.61166802  0.88361776  0.30766176     0.42500
H2176       H  0.92044039  0.53279900  0.26756689     0.06800
N2177       N  0.61863988  0.52982178  0.28674877    -0.46700
C2178       C  0.64364140  0.82219554  0.14203279     0.80200
N2179       N  0.62550270  0.84876808  0.15443881    -0.78200
C2180       C  0.63351821  0.85778282  0.17980396     0.82600
N2181       N  0.65934957  0.83984855  0.19292523    -0.78100
C2182       C  0.67694881  0.81282691  0.18102466     0.82700
N2183       N  0.66910437  0.80408076  0.15567171    -0.79800
C2184       C  0.89512020  0.57535902  0.35882538     0.80200
N2185       N  0.87956021  0.60355463  0.34647005    -0.78200
C2186       C  0.88896479  0.61297950  0.32150988     0.82600
N2187       N  0.91375400  0.59370696  0.30849586    -0.78100
C2188       C  0.93067654  0.56653582  0.32078224     0.82700
N2189       N  0.92105477  0.55714762  0.34571826    -0.79800
C2190       C  0.63627924  0.61518039  0.35729524     0.80200
N2191       N  0.61842033  0.58804944  0.34541875    -0.78200
C2192       C  0.62728961  0.57702492  0.32077421     0.82600
N2193       N  0.65423434  0.59333450  0.30766833    -0.78100
C2194       C  0.67191760  0.62080789  0.31920142     0.82700
N2195       N  0.66299976  0.63136915  0.34395339    -0.79800
C2196       C  0.67272528  0.57651554  0.14014171     0.80200
N2197       N  0.64678327  0.55859434  0.15343006    -0.78200
C2198       C  0.63842449  0.56767689  0.17873354     0.82600
N2199       N  0.65704377  0.59384739  0.19105788    -0.78100
C2200       C  0.68207696  0.61266369  0.17776271     0.82700
N2201       N  0.69003868  0.60371266  0.15247878    -0.79800
C2202       C  0.86775321  0.79215927  0.19684137     0.42400
N2203       N  0.82403148  0.75742127  0.20511537     0.01300
C2204       C  0.72219595  0.76129920  0.32002439    -0.06600
H2205       H  0.85528962  0.74101527  0.33626766     0.06800
C2206       C  0.85017658  0.62702726  0.28126776    -0.06900
Co2207     Co  0.78524843  0.77965254  0.25398725     0.74200
N2208       N  0.82323082  0.75147777  0.30157469    -0.26100
Co2209     Co  0.78438251  0.71211243  0.30045645     0.74100
C2210       C  0.86642532  0.63704806  0.30625582     0.42500
N2211       N  0.82371790  0.65244870  0.21960416     0.00900
N2212       N  0.82285106  0.67211864  0.29836311     0.01000
N2213       N  0.72247540  0.80316183  0.28773147    -0.47000
H2214       H  0.85721004  0.82576033  0.23403786     0.06800
N2215       N  0.82369272  0.77712825  0.28365852     0.01300
N2216       N  0.74534401  0.67283595  0.29774828     0.01000
C2217       C  0.70117767  0.63849561  0.30540653     0.42600
N2218       N  0.82358181  0.67843507  0.20198816    -0.25600
C2219       C  0.72076692  0.80443898  0.22039599    -0.06500
N2220       N  0.84904001  0.76421672  0.18740984    -0.46700
N2221       N  0.71924345  0.66694169  0.31474521    -0.46900
C2222       C  0.70445111  0.79354922  0.19558271     0.42400
N2223       N  0.74615930  0.77786437  0.28309803     0.01300
N2224       N  0.74670340  0.67777717  0.20115529    -0.25600
N2225       N  0.82435662  0.78021280  0.22499581    -0.26100
N2226       N  0.74600735  0.65269966  0.21949673     0.00900
H2227       H  0.71751490  0.68466622  0.16457113     0.06800
H2228       H  0.71225890  0.60460973  0.26843757     0.06800
N2229       N  0.74644200  0.75286546  0.30153265    -0.26100
N2230       N  0.82324562  0.64979953  0.27818513    -0.25800
N2231       N  0.74676230  0.75765234  0.20461085     0.01300
C2232       C  0.86665934  0.78968355  0.30972486     0.42700
C2233       C  0.84979167  0.67299036  0.18463800    -0.07000
N2234       N  0.74563393  0.64962355  0.27809048    -0.25800
H2235       H  0.85612140  0.60470540  0.26847674     0.06800
N2236       N  0.84933827  0.80061171  0.28779427    -0.47000
H2237       H  0.85565751  0.68960794  0.16772098     0.06800
C2238       C  0.70508710  0.63736201  0.19228640     0.42500
C2239       C  0.85130580  0.80305200  0.22159923    -0.06500
Co2240     Co  0.78518241  0.71797248  0.20264669     0.73800
N2241       N  0.84909605  0.62866829  0.21517154    -0.46700
C2242       C  0.70598902  0.79436489  0.31046594     0.42800
N2243       N  0.72189312  0.76450741  0.18673309    -0.46700
Co2244     Co  0.78465945  0.65042750  0.24889625     0.73900
C2245       C  0.71847346  0.62691917  0.28118003    -0.07000
C2246       C  0.84944958  0.75721225  0.31906850    -0.06600
N2247       N  0.74690344  0.78084231  0.22427623    -0.26100
N2248       N  0.84772722  0.66471151  0.31617467    -0.46900
H2249       H  0.71750923  0.74688237  0.33825037     0.06800
C2250       C  0.72209615  0.67000200  0.18271309    -0.07000
Cl2251     Cl  0.78474016  0.71505336  0.25151378    -0.50000
C2252       C  0.86662422  0.64012126  0.19346462     0.42500
H2253       H  0.71500208  0.82720141  0.23279608     0.06800
N2254       N  0.72171215  0.62800060  0.21487225    -0.46700
N2255       N  0.79061364  0.96209051  0.53791901    -0.36700
N2256       N  0.82803105  0.00288498  0.49819834    -0.57200
N2257       N  0.78538299  0.96764874  0.45771748    -0.36700
N2258       N  0.75058651  0.92410115  0.49790635    -0.57200
C2259       C  0.81697322  0.97686385  0.55236205     0.26900
C2260       C  0.77753892  0.93460028  0.55219427     0.26900
C2261       C  0.81168312  0.98219025  0.44295076     0.26900
C2262       C  0.76971141  0.94194713  0.44294346     0.26900
C2263       C  0.83978769  0.51154486  0.51888264     0.35500
C2264       C  0.83912969  0.51225155  0.47599158     0.35500
C2265       C  0.73321567  0.91270636  0.51969248     0.35500
C2266       C  0.72962921  0.91633765  0.47702317     0.35500
C2267       C  0.82083607  0.95852110  0.57604012    -0.22000
C2268       C  0.79588977  0.93184801  0.57595703    -0.22000
C2269       C  0.81251116  0.96566069  0.41839214    -0.22000
C2270       C  0.78622516  0.94009176  0.41846882    -0.22000
C2271       C  0.85582853  0.54313869  0.51121604    -0.23000
C2272       C  0.85567623  0.54345944  0.48399620    -0.23000
C2273       C  0.70126679  0.89703797  0.51267592    -0.23000
C2274       C  0.69889172  0.89947708  0.48554953    -0.23000
C2275       C  0.83499694  0.00865769  0.54595900    -0.18400
C2276       C  0.74714290  0.91447507  0.54557494    -0.18400
C2277       C  0.73933921  0.92195585  0.45035161    -0.18400
C2278       C  0.83344849  0.01137181  0.45053894    -0.18400
H2279       H  0.83904779  0.96441452  0.59205177     0.14500
H2280       H  0.79118446  0.91323184  0.59194913     0.14500
H2281       H  0.82997267  0.97158038  0.40198078     0.14500
H2282       H  0.77950539  0.92262998  0.40216293     0.14500
H2283       H  0.86667592  0.56368849  0.52389912     0.12800
H2284       H  0.86629400  0.56439279  0.47154969     0.12800
H2285       H  0.68193613  0.88486529  0.52569185     0.12800
H2286       H  0.67725892  0.88956744  0.47348956     0.12800
H2287       H  0.78004808  0.97226385  0.52049206     0.26100
H2288       H  0.77695881  0.97637928  0.47616632     0.26100
N2289       N  0.53812008  0.71924050  0.03868663    -0.36700
N2290       N  0.99465287  0.67754254  0.99711481    -0.57200
N2291       N  0.53776553  0.72033720  0.95782473    -0.36700
N2292       N  0.57819605  0.75801804  0.99837642    -0.57200
C2293       C  0.51195529  0.70486040  0.05356420     0.26900
C2294       C  0.55411548  0.74463812  0.05348149     0.26900
C2295       C  0.51327191  0.70440358  0.94217157     0.26900
C2296       C  0.55793026  0.74169800  0.94230308     0.26900
C2297       C  0.98346666  0.65859111  0.01825047     0.35500
C2298       C  0.98555762  0.65860075  0.97550959     0.35500
C2299       C  0.59686399  0.76780244  0.02002417     0.35500
C2300       C  0.59820750  0.76676387  0.97719432     0.35500
C2301       C  0.51138853  0.72113055  0.07819129    -0.22000
C2302       C  0.53794004  0.74631306  0.07812522    -0.22000
C2303       C  0.51830662  0.71549276  0.91621651    -0.22000
C2304       C  0.54602197  0.73931928  0.91635981    -0.22000
C2305       C  0.96665027  0.62765356  0.01013285    -0.23000
C2306       C  0.96785857  0.62769551  0.98292040    -0.23000
C2307       C  0.62866826  0.78341577  0.01263409    -0.23000
C2308       C  0.62959065  0.78265688  0.98546901    -0.23000
C2309       C  0.98681775  0.67017756  0.04460618    -0.18400
C2310       C  0.58499361  0.76389251  0.04632579    -0.18400
C2311       C  0.58826857  0.76145072  0.95045551    -0.18400
C2312       C  0.99113154  0.67000638  0.94923196    -0.18400
H2313       H  0.49402217  0.71505015  0.09464414     0.14500
H2314       H  0.54511405  0.76330567  0.09459711     0.14500
H2315       H  0.50382257  0.70699335  0.89880742     0.14500
H2316       H  0.55669347  0.75267778  0.89911969     0.14500
H2317       H  0.95449660  0.60747198  0.02248802     0.12800
H2318       H  0.95680343  0.60744049  0.97007185     0.12800
H2319       H  0.64911145  0.79408397  0.02546619     0.12800
H2320       H  0.65100368  0.79256884  0.97323871     0.12800
H2321       H  0.54644262  0.71014884  0.02036275     0.26100
H2322       H  0.54170031  0.71543767  0.97768440     0.26100
N2323       N  0.52803248  0.70377498  0.46236849    -0.36700
N2324       N  0.56823606  0.66615253  0.50315002    -0.57200
N2325       N  0.53095682  0.70790820  0.54263645    -0.36700
N2326       N  0.48775824  0.74219683  0.50168713    -0.57200
C2327       C  0.54418391  0.67834421  0.44787405     0.26900
C2328       C  0.50233963  0.71824354  0.44705366     0.26900
C2329       C  0.54677727  0.68268794  0.55777850     0.26900
C2330       C  0.50466636  0.72261063  0.55716538     0.26900
C2331       C  0.58765082  0.65757070  0.48168455     0.35500
C2332       C  0.58890829  0.65941143  0.52439984     0.35500
C2333       C  0.98456278  0.76640062  0.48065973     0.35500
C2334       C  0.98659311  0.76684519  0.52338662     0.35500
C2335       C  0.52853053  0.67657961  0.42299502    -0.22000
C2336       C  0.50207125  0.70176887  0.42249931    -0.22000
C2337       C  0.53019807  0.68112574  0.58223700    -0.22000
C2338       C  0.50379198  0.70659126  0.58193609    -0.22000
C2339       C  0.62066890  0.64476828  0.48926909    -0.23000
C2340       C  0.62146180  0.64590599  0.51646514    -0.23000
C2341       C  0.96990208  0.79855106  0.48852994    -0.23000
C2342       C  0.97100717  0.79876057  0.51573997    -0.23000
C2343       C  0.57510099  0.65962309  0.45546250    -0.18400
C2344       C  0.98704992  0.75432943  0.45436288    -0.18400
C2345       C  0.99142414  0.75538151  0.54971564    -0.18400
C2346       C  0.57781960  0.66367015  0.55083059    -0.18400
H2347       H  0.53609701  0.65968450  0.40658606     0.14500
H2348       H  0.48526068  0.70797058  0.40570583     0.14500
H2349       H  0.53720028  0.66424065  0.59884426     0.14500
H2350       H  0.48633843  0.71300987  0.59824896     0.14500
H2351       H  0.64182912  0.63547370  0.47654931     0.12800
H2352       H  0.64341007  0.63775998  0.52895202     0.12800
H2353       H  0.95918011  0.81938394  0.47599816     0.12800
H2354       H  0.96135894  0.81986417  0.52843489     0.12800
H2355       H  0.53622582  0.71284546  0.48068489     0.26100
H2356       H  0.53951941  0.71672545  0.52426849     0.26100
N2357       N  0.78849280  0.95908275  0.96221193    -0.36700
N2358       N  0.82596527  0.91923101  0.00239056    -0.57200
N2359       N  0.79101062  0.96299305  0.04274869    -0.36700
N2360       N  0.75676797  0.00621288  0.00203065    -0.57200
C2361       C  0.81340419  0.94210289  0.94764630     0.26900
C2362       C  0.77644333  0.98665489  0.94748340     0.26900
C2363       C  0.81405760  0.94437659  0.05807935     0.26900
C2364       C  0.77672500  0.98918358  0.05785746     0.26900
C2365       C  0.83492796  0.89913084  0.98126629     0.35500
C2366       C  0.83655625  0.90111553  0.02406371     0.35500
C2367       C  0.73005818  0.51506457  0.98167785     0.35500
C2368       C  0.73305439  0.51631724  0.02447914     0.35500
C2369       C  0.81728446  0.95920366  0.92345671    -0.22000
C2370       C  0.79384842  0.98729261  0.92333519    -0.22000
C2371       C  0.81402702  0.95873684  0.08340966    -0.22000
C2372       C  0.79062804  0.98696422  0.08323828    -0.22000
C2373       C  0.85161427  0.86811617  0.98944810    -0.23000
C2374       C  0.85280437  0.86942025  0.01662125    -0.23000
C2375       C  0.71400259  0.54655751  0.98959317    -0.23000
C2376       C  0.71616164  0.54749481  0.01673033    -0.23000
C2377       C  0.83070279  0.91003572  0.95474881    -0.18400
C2378       C  0.73282129  0.50330850  0.95519976    -0.18400
C2379       C  0.73866225  0.50548315  0.05096601    -0.18400
C2380       C  0.83400046  0.91386141  0.05032198    -0.18400
H2381       H  0.83466598  0.95175825  0.90734022     0.14500
H2382       H  0.78956125  0.00571063  0.90712375     0.14500
H2383       H  0.82910717  0.94966696  0.10039221     0.14500
H2384       H  0.78425935  0.00370308  0.10001565     0.14500
H2385       H  0.86247882  0.84719787  0.97713432     0.12800
H2386       H  0.86477295  0.84954766  0.02938028     0.12800
H2387       H  0.70201974  0.56677588  0.97714679     0.12800
H2388       H  0.70613854  0.56856114  0.02929422     0.12800
H2389       H  0.77799799  0.95063414  0.98015188     0.26100
H2390       H  0.78404594  0.95699122  0.02347141     0.26100
C2391       C  0.89286761  0.85333588  0.85960461     0.80200
N2392       N  0.87661026  0.82700773  0.84560738    -0.78200
C2393       C  0.88717992  0.81910484  0.82062359     0.82600
N2394       N  0.91420537  0.83757274  0.80943651    -0.78100
C2395       C  0.93017195  0.86436346  0.82296838     0.82700
N2396       N  0.91925681  0.87234693  0.84787448    -0.79800
C2397       C  0.92758046  0.59822366  0.85917159     0.80200
N2398       N  0.94391052  0.57124717  0.84602829    -0.78200
C2399       C  0.93474233  0.56276849  0.82088308     0.82600
N2400       N  0.90900496  0.58156848  0.80854720    -0.78100
C2401       C  0.89105412  0.60731096  0.82162610     0.82700
N2402       N  0.90071145  0.61606555  0.84673008    -0.79800
C2403       C  0.68348872  0.56727471  0.85825472     0.80200
N2404       N  0.65654263  0.55078545  0.84511837    -0.78200
C2405       C  0.64790095  0.56053749  0.82002550     0.82600
N2406       N  0.66615683  0.58694759  0.80778595    -0.78100
C2407       C  0.69336054  0.60318371  0.82048215     0.82700
N2408       N  0.70181563  0.59323890  0.84549368    -0.79800
C2409       C  0.65728112  0.82608876  0.86046324     0.80200
N2410       N  0.68305983  0.80857063  0.84686711    -0.78200
C2411       C  0.69006346  0.81689118  0.82127479     0.82600
N2412       N  0.67063845  0.84249702  0.80892224    -0.78100
C2413       C  0.64589322  0.86126973  0.82261977     0.82700
N2414       N  0.63886109  0.85252233  0.84815165    -0.79800
C2415       C  0.65119036  0.59931053  0.63918374     0.80200
N2416       N  0.67769691  0.61676256  0.65223811    -0.78200
C2417       C  0.68529339  0.60869530  0.67784586     0.82600
N2418       N  0.66576520  0.58373763  0.69066558    -0.78100
C2419       C  0.64026309  0.56532215  0.67761779     0.82700
N2420       N  0.63263472  0.57356031  0.65210242    -0.79800
C2421       C  0.89270977  0.56394473  0.63997520     0.80200
N2422       N  0.87481904  0.59027584  0.65278691    -0.78200
C2423       C  0.88440077  0.60034672  0.67761260     0.82600
N2424       N  0.91208707  0.58395275  0.68984625    -0.78100
C2425       C  0.92957458  0.55712971  0.67741743     0.82700
N2426       N  0.91962390  0.54712210  0.65271744    -0.79800
C2427       C  0.86893615  0.79124555  0.80564667     0.42400
N2428       N  0.83242910  0.74975735  0.79587580     0.01300
C2429       C  0.83172043  0.64533852  0.68225565    -0.06600
H2430       H  0.82156191  0.77896262  0.66333361     0.06800
C2431       C  0.70310712  0.77786283  0.71830358    -0.06900
Co2432     Co  0.85424590  0.70997294  0.74719740     0.74200
N2433       N  0.82795607  0.74847583  0.69940979    -0.26100
Co2434     Co  0.78715427  0.71078373  0.70018947     0.74100
C2435       C  0.71517501  0.79523558  0.69425527     0.42500
N2436       N  0.72819694  0.75156425  0.77994985     0.00900
N2437       N  0.74864702  0.75051425  0.70204209     0.01000
N2438       N  0.87526142  0.64546407  0.71329501    -0.47000
H2439       H  0.90349451  0.77978131  0.76906399     0.06800
N2440       N  0.85265746  0.74861996  0.71798149     0.01300
N2441       N  0.74648658  0.67283037  0.70206569     0.01000
C2442       C  0.70913895  0.63144557  0.69324175     0.42600
N2443       N  0.75327874  0.75105291  0.79820642    -0.25600
C2444       C  0.87787271  0.64563884  0.78078030    -0.06500
N2445       N  0.83929998  0.77446530  0.81383754    -0.46700
N2446       N  0.73790309  0.64886886  0.68382174    -0.46900
C2447       C  0.86803289  0.63069962  0.80623921     0.42400
N2448       N  0.85149653  0.67081377  0.71779730     0.01300
N2449       N  0.75266214  0.67369220  0.79871755    -0.25600
N2450       N  0.85604292  0.74901944  0.77659705    -0.26100
N2451       N  0.72715055  0.67351656  0.78077355     0.00900
H2452       H  0.76229667  0.64226057  0.83374072     0.06800
H2453       H  0.67689683  0.64269592  0.73084298     0.06800
N2454       N  0.82590577  0.67134075  0.69988060    -0.26100
N2455       N  0.72537163  0.75050961  0.72155600    -0.25800
N2456       N  0.83185510  0.67260560  0.79665850     0.01300
C2457       C  0.86844617  0.79008310  0.69154527     0.42700
C2458       C  0.74652918  0.77691439  0.81584084    -0.07000
N2459       N  0.72402990  0.67303970  0.72209906    -0.25800
H2460       H  0.68094608  0.78437986  0.73099982     0.06800
N2461       N  0.87739954  0.77297472  0.71397991    -0.47000
H2462       H  0.76154295  0.78205176  0.83370774     0.06800
C2463       C  0.71363661  0.63124176  0.80727475     0.42500
C2464       C  0.88020781  0.77462360  0.78097515    -0.06500
Co2465     Co  0.79258088  0.71178790  0.79791948     0.73800
N2466       N  0.70423281  0.77679267  0.78405278    -0.46700
C2467       C  0.86437782  0.62833575  0.69124205     0.42800
N2468       N  0.83975329  0.64903983  0.81537883    -0.46700
Co2469     Co  0.72553054  0.71208227  0.75110659     0.73900
C2470       C  0.69981172  0.64746686  0.71845029    -0.07000
C2471       C  0.83604512  0.77357582  0.68141065    -0.06600
N2472       N  0.85435886  0.67165638  0.77666654    -0.26100
N2473       N  0.74339151  0.77691937  0.68497802    -0.46900
H2474       H  0.81585253  0.64001196  0.66483164     0.06800
C2475       C  0.74639179  0.64786166  0.81640626    -0.07000
Cl2476     Cl  0.78989937  0.71110539  0.74909542    -0.50000
C2477       C  0.71435387  0.79435082  0.80608064     0.42500
H2478       H  0.90073180  0.63997261  0.76854330     0.06800
N2479       N  0.70308637  0.64846837  0.78517769    -0.46700
C2480       C  0.93066920  0.82463673  0.64138837     0.80200
N2481       N  0.90375343  0.80601794  0.65293735    -0.78200
C2482       C  0.89301240  0.81372926  0.67788084     0.82600
N2483       N  0.90992191  0.83942844  0.69183098    -0.78100
C2484       C  0.93562691  0.85920764  0.68024676     0.82700
N2485       N  0.94598733  0.85163598  0.65518108    -0.79800
C2486       C  0.69105200  0.86510948  0.64541480     0.80200
N2487       N  0.66415080  0.88128193  0.65865554    -0.78200
C2488       C  0.65448431  0.87044340  0.68317667     0.82600
N2489       N  0.67152160  0.84266965  0.69459145    -0.78100
C2490       C  0.69835936  0.82603793  0.68174028     0.82700
N2491       N  0.70815276  0.83723944  0.65722872    -0.79800
C2492       C  0.95686338  0.88326101  0.69646990     0.42400
N2493       N  0.99877218  0.91987277  0.70533207     0.01300
C2494       C  0.60512157  0.91819109  0.81858627    -0.06600
H2495       H  0.96938362  0.93346121  0.83710935     0.06800
C2496       C  0.97355838  0.55080706  0.77995629    -0.06900
Co2497     Co  0.54104398  0.89755678  0.75333327     0.74200
N2498       N  0.00059916  0.92461889  0.80189327    -0.26100
Co2499     Co  0.54024454  0.96510411  0.80016063     0.74100
C2500       C  0.95796187  0.54008403  0.80507279     0.42500
N2501       N  0.00051491  0.52525696  0.71740818     0.00900
N2502       N  0.00140483  0.50536678  0.79622995     0.01000
N2503       N  0.60503487  0.87642854  0.78635648    -0.47000
H2504       H  0.96840527  0.84975792  0.73360827     0.06800
N2505       N  0.00047463  0.89917018  0.78384815     0.01300
N2506       N  0.57704713  0.50641372  0.79741809     0.01000
C2507       C  0.61925031  0.54243352  0.80606675     0.42600
N2508       N  0.00113442  0.49952174  0.69961141    -0.25600
C2509       C  0.60752644  0.87514261  0.72094478    -0.06500
N2510       N  0.97450471  0.91201933  0.68722441    -0.46700
N2511       N  0.60230164  0.51315109  0.81495114    -0.46900
C2512       C  0.62476984  0.88750429  0.69686103     0.42400
N2513       N  0.57996322  0.90053836  0.78242278     0.01300
N2514       N  0.57531910  0.50141466  0.70095526    -0.25600
N2515       N  0.99912589  0.89688686  0.72513186    -0.26100
N2516       N  0.57572495  0.52661707  0.71916294     0.00900
H2517       H  0.60531076  0.49365028  0.66497789     0.06800
H2518       H  0.60763401  0.57657773  0.76917571     0.06800
N2519       N  0.57947076  0.92550899  0.80082489    -0.26100
N2520       N  0.00041891  0.52804818  0.77623533    -0.25800
N2521       N  0.57986440  0.92074805  0.70464664     0.01300
C2522       C  0.95874366  0.88478349  0.81046445     0.42700
C2523       C  0.97537304  0.50530572  0.68186615    -0.07000
N2524       N  0.57626780  0.52983072  0.77786010    -0.25800
H2525       H  0.96732239  0.57350945  0.76755502     0.06800
N2526       N  0.97578532  0.87474021  0.78824203    -0.47000
H2527       H  0.96998004  0.48907845  0.66466253     0.06800
C2528       C  0.61706147  0.54132672  0.69232254     0.42500
C2529       C  0.97323482  0.87300926  0.72143659    -0.06500
Co2530     Co  0.54022914  0.95938988  0.70240426     0.73800
N2531       N  0.97524741  0.54907531  0.71279004    -0.46700
C2532       C  0.62241672  0.88596840  0.80852018     0.42800
N2533       N  0.60619161  0.91572000  0.68767735    -0.46700
Co2534     Co  0.53723610  0.52849115  0.74867302     0.73900
C2535       C  0.60228438  0.55363149  0.78154092    -0.07000
C2536       C  0.97508937  0.91777031  0.81968727    -0.06600
N2537       N  0.57994264  0.89727112  0.72412959    -0.26100
N2538       N  0.97700977  0.51228077  0.81441302    -0.46900
H2539       H  0.61031218  0.93292020  0.83658064     0.06800
C2540       C  0.60027439  0.50871972  0.68282812    -0.05000
Cl2541     Cl  0.53997902  0.96223905  0.75125119    -0.50000
C2542       C  0.95836167  0.53803554  0.69071440     0.42500
H2543       H  0.61419008  0.85282570  0.73360118     0.06800
N2544       N  0.60019952  0.55116536  0.71464980    -0.46700
C2545       C  0.73210451  0.55380937  0.92450433    -0.05800
C2546       C  0.71441898  0.52381659  0.93418597     0.00100
C2547       C  0.68410911  0.51074026  0.92083745    -0.08500
C2548       C  0.67396773  0.52710060  0.89698068    -0.05900
C2549       C  0.69352688  0.55544515  0.88567154     0.00100
C2550       C  0.72257433  0.56999895  0.90043187    -0.08400
C2551       C  0.74503434  0.60119059  0.89092555     0.62000
H2552       H  0.75525841  0.56292430  0.93530816     0.12700
H2553       H  0.65128542  0.51617176  0.88654535     0.12700
C2554       C  0.66299439  0.47835246  0.92983555     0.62200
F2555       F  0.77005673  0.61151186  0.90951051    -0.23000
F2556       F  0.72363271  0.63046942  0.88600550    -0.20300
F2557       F  0.76328463  0.59148949  0.86831626    -0.20000
F2558       F  0.62798590  0.48804912  0.93376225    -0.20000
F2559       F  0.67538959  0.46331957  0.95308700    -0.20300
F2560       F  0.66432087  0.45266655  0.91028789    -0.23000
C2561       C  0.88417471  0.89272200  0.92918023    -0.05800
C2562       C  0.84757485  0.88900686  0.93318359     0.00100
C2563       C  0.82710810  0.86887960  0.91509257    -0.08500
C2564       C  0.84339436  0.85639089  0.89189172    -0.05900
C2565       C  0.87944206  0.86309479  0.88640595     0.00100
C2566       C  0.90078129  0.87960192  0.90621885    -0.08400
C2567       C  0.94068289  0.88408571  0.90339917     0.62000
H2568       H  0.89937566  0.90764038  0.94364421     0.12700
H2569       H  0.82739437  0.84272921  0.87725149     0.12700
C2570       C  0.78810474  0.86116990  0.92013664     0.62200
F2571       F  0.95654265  0.89233378  0.92737945    -0.23000
F2572       F  0.94789561  0.91151384  0.88592113    -0.20300
F2573       F  0.95585572  0.85276765  0.89437092    -0.20000
F2574       F  0.76877872  0.89242755  0.91924990    -0.20000
F2575       F  0.78417493  0.84568155  0.94482073    -0.20300
F2576       F  0.77405189  0.83806354  0.90148803    -0.23000
C2577       C  0.63970908  0.65081193  0.60968450    -0.05800
C2578       C  0.63733927  0.61372641  0.61372323     0.00100
C2579       C  0.61824026  0.59269092  0.59512614    -0.08500
C2580       C  0.59913351  0.61003689  0.57490965    -0.05900
C2581       C  0.59960330  0.64724457  0.57219302     0.00100
C2582       C  0.62125556  0.66799101  0.58911754    -0.08400
C2583       C  0.62434829  0.70818281  0.58584337     0.62000
H2584       H  0.65454403  0.66678199  0.62370111     0.12700
H2585       H  0.58308428  0.59459978  0.56126428     0.12700
C2586       C  0.61706192  0.55224559  0.59643850     0.62200
F2587       F  0.65092380  0.72224761  0.60166952    -0.23000
F2588       F  0.59275411  0.72435678  0.59278517    -0.20300
F2589       F  0.63223925  0.71652479  0.55983260    -0.20000
F2590       F  0.59047139  0.54161461  0.61356432    -0.20000
F2591       F  0.64928393  0.53862962  0.60495115    -0.20300
F2592       F  0.61015298  0.53779906  0.57173823    -0.23000
C2593       C  0.92540546  0.78663136  0.60143286    -0.05800
C2594       C  0.94580715  0.81169318  0.61571078     0.00100
C2595       C  0.98057026  0.82041599  0.60625160    -0.08500
C2596       C  0.99373634  0.80204813  0.58405057    -0.05900
C2597       C  0.97388191  0.77578420  0.57116704     0.00100
C2598       C  0.93893568  0.76831735  0.57943526    -0.08400
C2599       C  0.91637181  0.74060989  0.56533694     0.62000
H2600       H  0.89873602  0.78063741  0.60800798     0.12700
H2601       H  0.51425215  0.80455941  0.57474399     0.12700
C2602       C  0.00465181  0.84784651  0.61939566     0.62200
F2603       F  0.88359536  0.73624559  0.57728902    -0.23000
F2604       F  0.93346223  0.70797131  0.56555502    -0.20300
F2605       F  0.91070934  0.75104563  0.53941700    -0.20000
F2606       F  0.01291281  0.83709009  0.64488117    -0.20000
F2607       F  0.98802812  0.88074000  0.61984229    -0.20300
F2608       F  0.52900565  0.85515143  0.59894708    -0.23000
C2609       C  0.61105096  0.81495981  0.92709017    -0.05800
C2610       C  0.61095008  0.77764752  0.92949038     0.00100
C2611       C  0.63062738  0.75688556  0.91124369    -0.08500
C2612       C  0.64609044  0.77400782  0.88943393    -0.05900
C2613       C  0.64436748  0.81121219  0.88600034     0.00100
C2614       C  0.62846699  0.83227796  0.90606135    -0.08400
C2615       C  0.63096314  0.87266650  0.90604217     0.62000
H2616       H  0.59674130  0.83048743  0.94166698     0.12700
H2617       H  0.65908628  0.75773709  0.87460099     0.12700
C2618       C  0.63601879  0.71681515  0.91346441     0.62200
F2619       F  0.62231821  0.88673927  0.93053207    -0.23000
F2620       F  0.60796043  0.88696720  0.88751274    -0.20300
F2621       F  0.66537914  0.88290828  0.90024925    -0.20000
F2622       F  0.61963321  0.70016429  0.89229299    -0.20000
F2623       F  0.62285419  0.70243502  0.93664670    -0.20300
F2624       F  0.67199479  0.70940080  0.91262800    -0.23000
C2625       C  0.99084063  0.62154217  0.91645844    -0.05800
C2626       C  0.97286732  0.65022092  0.92775486     0.00100
C2627       C  0.93885414  0.65980996  0.91849655    -0.08500
C2628       C  0.92432965  0.64078628  0.89704922    -0.05900
C2629       C  0.94289848  0.61272819  0.88447331     0.00100
C2630       C  0.97669527  0.60223229  0.89506437    -0.08400
C2631       C  0.99893944  0.57173191  0.88404734     0.62000
H2632       H  0.01675127  0.61496334  0.92443022     0.12700
H2633       H  0.89844304  0.64843075  0.88964449     0.12700
C2634       C  0.91837641  0.69021927  0.93123216     0.62200
F2635       F  0.51413319  0.56085345  0.91310778    -0.23000
F2636       F  0.00994793  0.57980166  0.85861740    -0.20300
F2637       F  0.97939720  0.54048335  0.88416155    -0.20000
F2638       F  0.93818280  0.72125561  0.93042747    -0.20000
F2639       F  0.91116900  0.68186638  0.95734624    -0.20300
F2640       F  0.88647930  0.69671334  0.91845570    -0.23000
C2641       C  0.88762652  0.51917476  0.57199658    -0.05800
C2642       C  0.85112540  0.52154019  0.56713069     0.00100
C2643       C  0.82930495  0.54170993  0.58422404    -0.08500
C2644       C  0.84435130  0.55610425  0.60727144    -0.05900
C2645       C  0.88049715  0.55148807  0.61348620     0.00100
C2646       C  0.90304282  0.53433971  0.59474529    -0.08400
C2647       C  0.94298440  0.53125860  0.59842582     0.62000
H2648       H  0.90375448  0.50402679  0.55828127     0.12700
H2649       H  0.82736980  0.56987671  0.62117762     0.12700
C2650       C  0.79023535  0.54784397  0.57816510     0.62200
F2651       F  0.95978550  0.52186367  0.57508114    -0.23000
F2652       F  0.95045125  0.50524185  0.61700250    -0.20300
F2653       F  0.95703183  0.56356187  0.60652700    -0.20000
F2654       F  0.77156680  0.51626160  0.58038934    -0.20000
F2655       F  0.78657905  0.56093120  0.55269645    -0.20300
F2656       F  0.77519425  0.57231119  0.59531981    -0.23000
C2657       C  0.70413882  0.91940836  0.58156465    -0.05800
C2658       C  0.72778393  0.89751300  0.56781949     0.00100
C2659       C  0.73729486  0.86396977  0.57845999    -0.08500
C2660       C  0.72378607  0.85425239  0.60335289    -0.05900
C2661       C  0.70146716  0.87696832  0.61815031     0.00100
C2662       C  0.69093937  0.91022146  0.60668868    -0.08400
C2663       C  0.66738892  0.93716594  0.62079115     0.62000
H2664       H  0.69774834  0.94504155  0.57285783     0.12700
H2665       H  0.73166683  0.82869512  0.61150519     0.12700
C2666       C  0.76283150  0.83826907  0.56517614     0.62200
F2667       F  0.66304819  0.96808624  0.60620376    -0.23000
F2668       F  0.68253008  0.94669139  0.64474875    -0.20300
F2669       F  0.63393841  0.92291417  0.62477185    -0.20000
F2670       F  0.79295919  0.83481966  0.58067916    -0.20000
F2671       F  0.77306533  0.84907480  0.54016430    -0.20300
F2672       F  0.74682993  0.80521446  0.56282325    -0.23000
C2673       C  0.72488425  0.56306945  0.11216971    -0.05800
C2674       C  0.68777874  0.56176227  0.11520029     0.00100
C2675       C  0.66700139  0.54558898  0.09508454    -0.08500
C2676       C  0.68445549  0.52720348  0.07451710    -0.05900
C2677       C  0.72172399  0.52669152  0.07258520     0.00100
C2678       C  0.74213022  0.54701260  0.09065137    -0.08400
C2679       C  0.78169339  0.55300054  0.08674504     0.62000
H2680       H  0.74065137  0.57636654  0.12713276     0.12700
H2681       H  0.66908887  0.51303422  0.05973813     0.12700
C2682       C  0.62687707  0.54915622  0.09455083     0.62200
F2683       F  0.79506389  0.57779751  0.10444726    -0.23000
F2684       F  0.78779083  0.56567773  0.06143351    -0.20300
F2685       F  0.80013778  0.52157705  0.09034982    -0.20000
F2686       F  0.61740248  0.58406440  0.09993893    -0.20000
F2687       F  0.61184439  0.52678536  0.11317250    -0.20300
F2688       F  0.61307050  0.54044580  0.06996312    -0.23000
C2689       C  0.60782290  0.60089829  0.40009842    -0.05800
C2690       C  0.62645089  0.62608678  0.38465546     0.00100
C2691       C  0.63266730  0.66084269  0.39517964    -0.08500
C2692       C  0.61819270  0.66921702  0.41998370    -0.05900
C2693       C  0.59693666  0.64502410  0.43381132     0.00100
C2694       C  0.59210500  0.61009562  0.42427564    -0.08400
C2695       C  0.56813635  0.58376343  0.43851735     0.62000
H2696       H  0.60383619  0.57426129  0.39241606     0.12700
H2697       H  0.62112533  0.69578096  0.42811346     0.12700
C2698       C  0.65227702  0.69002720  0.38017550     0.62200
F2699       F  0.56947071  0.55019074  0.42718542    -0.23000
F2700       F  0.53340229  0.59565867  0.43741887    -0.20300
F2701       F  0.57833093  0.58058573  0.46471938    -0.20000
F2702       F  0.63540931  0.69660044  0.35630659    -0.20000
F2703       F  0.68708395  0.67992594  0.37581492    -0.20300
F2704       F  0.65317147  0.72179676  0.39410436    -0.23000
C2705       C  0.89830369  0.53069917  0.39522859    -0.05800
C2706       C  0.88053552  0.56041272  0.38426353     0.00100
C2707       C  0.84855695  0.57231321  0.39677452    -0.08500
C2708       C  0.83514445  0.55260340  0.41836108    -0.05900
C2709       C  0.85231051  0.52220902  0.42815731     0.00100
C2710       C  0.88490858  0.51141672  0.41684834    -0.08400
C2711       C  0.90654314  0.47956431  0.42616134     0.62000
H2712       H  0.92295571  0.52158208  0.38651448     0.12700
H2713       H  0.81039343  0.56028285  0.42763808     0.12700
C2714       C  0.82787715  0.60511006  0.38783930     0.62200
F2715       F  0.90899315  0.45507194  0.40577983    -0.23000
F2716       F  0.89233071  0.46252625  0.44795699    -0.20300
F2717       F  0.94038970  0.49087263  0.43276526    -0.20000
F2718       F  0.81443544  0.59996310  0.36262706    -0.20000
F2719       F  0.84979634  0.63471621  0.38828538    -0.20300
F2720       F  0.79934211  0.61229326  0.40425210    -0.23000
C2721       C  0.60245959  0.81685507  0.07293765    -0.05800
C2722       C  0.60603462  0.78025576  0.06805073     0.00100
C2723       C  0.62743157  0.75915773  0.08486797    -0.08500
C2724       C  0.64028084  0.77432066  0.10836041    -0.05900
C2725       C  0.63362928  0.81020730  0.11491751     0.00100
C2726       C  0.61703891  0.83263295  0.09579477    -0.08400
C2727       C  0.61515057  0.87288555  0.09887529     0.62000
H2728       H  0.58720092  0.83279263  0.05908964     0.12700
H2729       H  0.65454752  0.75757764  0.12222955     0.12700
C2730       C  0.63659597  0.72083591  0.07790147     0.62200
F2731       F  0.60745950  0.88945375  0.07501979    -0.23000
F2732       F  0.64750753  0.88593845  0.10758971    -0.20300
F2733       F  0.58887157  0.88186461  0.11672746    -0.20000
F2734       F  0.65223803  0.71980776  0.05316250    -0.20000
F2735       F  0.60632293  0.70013453  0.07757557    -0.20300
F2736       F  0.66006972  0.70592464  0.09590312    -0.23000
C2737       C  0.97736228  0.61622659  0.10732612    -0.05800
C2738       C  0.94240363  0.62474476  0.11495952     0.00100
C2739       C  0.92016015  0.64336276  0.09669186    -0.08500
C2740       C  0.93501312  0.65577896  0.07282964    -0.05900
C2741       C  0.97058762  0.64941518  0.06647899     0.00100
C2742       C  0.99175777  0.62798642  0.08325015    -0.08400
C2743       C  0.53293009  0.62322726  0.07793117     0.62000
H2744       H  0.99399306  0.60112401  0.12076455     0.12700
H2745       H  0.91945001  0.67216240  0.05946888     0.12700
C2746       C  0.88113526  0.65066194  0.10197244     0.62200
F2747       F  0.54431808  0.59317850  0.09144119    -0.23000
F2748       F  0.55398071  0.65164120  0.08534511    -0.20300
F2749       F  0.53726493  0.61681690  0.05116312    -0.20000
F2750       F  0.87790267  0.67708970  0.12084406    -0.20000
F2751       F  0.86446309  0.61988852  0.11058310    -0.20300
F2752       F  0.86360480  0.66209409  0.07938228    -0.23000
C2753       C  0.68025614  0.90649544  0.39021103    -0.05800
C2754       C  0.68184915  0.86914073  0.38772402     0.00100
C2755       C  0.69825919  0.84894707  0.40806365    -0.08500
C2756       C  0.71726129  0.86706581  0.42794336    -0.05900
C2757       C  0.71783003  0.90450309  0.42920398     0.00100
C2758       C  0.69718368  0.92453327  0.41105778    -0.08400
C2759       C  0.69250108  0.96464392  0.41384954     0.62000
H2760       H  0.66676408  0.92185620  0.37507340     0.12700
H2761       H  0.73182437  0.85201357  0.44273098     0.12700
C2762       C  0.69475774  0.80871237  0.40959752     0.62200
F2763       F  0.66665658  0.97760282  0.39683410    -0.23000
F2764       F  0.72387455  0.98207701  0.40817169    -0.20300
F2765       F  0.68227150  0.97276201  0.43942744    -0.20000
F2766       F  0.72008134  0.79278189  0.39377243    -0.20000
F2767       F  0.66125500  0.79821440  0.40141357    -0.20300
F2768       F  0.69932534  0.79677853  0.43534705    -0.23000
C2769       C  0.83691718  0.86363305  0.08208301    -0.05800
C2770       C  0.85334840  0.89367581  0.07118840     0.00100
C2771       C  0.88769915  0.90349253  0.07966390    -0.08500
C2772       C  0.90285951  0.88516156  0.10114262    -0.05900
C2773       C  0.88516624  0.85685867  0.11399409     0.00100
C2774       C  0.85264351  0.84405052  0.10280143    -0.08400
C2775       C  0.83403200  0.81021235  0.11203884     0.62000
H2776       H  0.81121607  0.85592043  0.07429563     0.12700
H2777       H  0.92845976  0.89375601  0.10849318     0.12700
C2778       C  0.90814421  0.93321757  0.06604849     0.62200
F2779       F  0.80767660  0.79973033  0.09453556    -0.23000
F2780       F  0.81821058  0.81574013  0.13637804    -0.20300
F2781       F  0.85819752  0.78247651  0.11368508    -0.20000
F2782       F  0.88975873  0.96499113  0.06795475    -0.20000
F2783       F  0.91271617  0.92485202  0.03962227    -0.20300
F2784       F  0.94138770  0.93820255  0.07719931    -0.23000
C2785       C  0.99487097  0.79714142  0.41803922    -0.05800
C2786       C  0.97153924  0.77580134  0.43259395     0.00100
C2787       C  0.93630107  0.77103177  0.42390594    -0.08500
C2788       C  0.92602211  0.78652894  0.39976641    -0.05900
C2789       C  0.95005513  0.80581056  0.38379157     0.00100
C2790       C  0.98507182  0.81236019  0.39364472    -0.08400
C2791       C  0.01287749  0.83383725  0.37866194     0.62000
H2792       H  0.02167569  0.80018140  0.42552806     0.12700
H2793       H  0.89912787  0.78251913  0.39280033     0.12700
C2794       C  0.91029779  0.74835615  0.43953496     0.62200
F2795       F  0.04506848  0.83498608  0.39198303    -0.23000
F2796       F  0.00144561  0.86864433  0.37559229    -0.20300
F2797       F  0.01903530  0.81862239  0.35417226    -0.20000
F2798       F  0.92274859  0.71373671  0.44128828    -0.20000
F2799       F  0.39017977  0.71724881  0.41793149    -0.20300
F2800       F  0.90646290  0.76207508  0.46474810    -0.23000
loop_ 
_geom_bond_atom_site_label_1 
_geom_bond_atom_site_label_2 
_geom_bond_distance 
_geom_bond_site_symmetry_2 
_ccdc_geom_bond_type 
C1            N2   1.357       .  A
C1            N6   1.362       .  A
C1          C689   1.493       .  S
N2            C3   1.356       .  A
C3            N4   1.356       .  A
C3           C25   1.464       .  S
N4            C5   1.357       .  A
C5            N6   1.359       .  A
C5          C132   1.467       .  S
C7            N8   1.357       .  A
C7           N12   1.365       .  A
C7          C673   1.504       .  S
N8            C9   1.355       .  A
C9           N10   1.353       .  A
C9          C102   1.457       .  S
N10          C11   1.354       .  A
C11          N12   1.358       .  A
C11          C55   1.462       .  S
C13          N14   1.359       .  A
C13          N18   1.361       .  A
C13         C654   1.493       .  S
N14          C15   1.356       .  A
C15          N16   1.357       .  A
C15         C142   1.463       .  S
N16          C17   1.356       .  A
C17          N18   1.358       .  A
C17          C75   1.463       .  S
C19          N20   1.358       .  A
C19          N24   1.360       .  A
C19         C638   1.502       .  S
N20          C21   1.359       .  A
C21          N22   1.361       .  A
C21         C152   1.470       .  S
N22          C23   1.360       .  A
C23          N24   1.357       .  A
C23          C65   1.471       .  S
C25        N1443   1.348       .  A
C25          C62   1.458       .  S
N26          N43   1.325       .  A
N26        N1448   1.320       .  A
N26         Co63   2.077   1_655  S
C27         N752   1.338       .  A
C27        C1465   1.458       .  S
C27          H72   1.082   1_655  S
H28          C69   1.082   1_455  S
C29          N53   1.335       .  A
C29          C33   1.452       .  S
C29          H58   1.082       .  S
Co30         N48   2.092       .  S
Co30         N38   2.081       .  S
Co30         N70   2.076       .  S
Co30         N46   2.099       .  S
Co30      Cl1474   2.428       .  S
N31          C69   1.345       .  A
N31        N1438   1.321       .  A
N31         Co32   2.093   1_655  S
Co32         N35   2.079       .  S
Co32         N52   2.073   1_455  S
Co32         N39   2.096       .  S
Co32        Cl74   2.475       .  S
C33          N71   1.349       .  A
C33          C80   1.459       .  S
N34          N41   1.320       .  A
N34          N64   1.324       .  A
N34         Co67   2.088       .  S
N35          N53   1.320       .  A
N35          N71   1.326       .  A
N36          C65   1.350       .  A
N36         N746   1.328       .  A
H37          C62   1.082       .  S
N38          N59   1.322       .  A
N38        N1431   1.320       .  A
N39          N57   1.320       .  A
N39         N744   1.328       .  A
C40          N44   1.353       .  A
C40          C68   1.454       .  S
C40          C98   1.469       .  S
N41          C56   1.341       .  A
N41         Co63   2.082       .  S
C42         N770   1.336       .  A
C42          C45   1.454       .  S
C42          H76   1.082       .  S
N43        C1425   1.348       .  A
N44         N739   1.329       .  A
C45        N1466   1.352       .  A
C45          C88   1.465       .  S
N46         N736   1.327       .  A
N46        N1452   1.321       .  A
N47         C773   1.342       .  A
N47          N49   1.319       .  A
N47         Co63   2.080       .  S
N48          C62   1.341       .  A
N48        N1426   1.321       .  A
N49         N777   1.321       .  A
N49         Co67   2.071       .  S
H50          C73   1.082       .  S
H51          C68   1.082       .  S
N52         C727   1.337       .  A
N52        N1446   1.320       .  A
N53         Co67   2.073       .  S
N54         N766   1.326       .  A
N54        N1470   1.320       .  A
N54         Co63   2.082   1_655  S
C55          N59   1.347       .  A
C55        C1469   1.460       .  S
C56          C75   1.458       .  S
C56          H60   1.082       .  S
N57         C768   1.337       .  A
N57         Co67   2.078       .  S
C61          N77   1.348       .  A
C61          C73   1.458       .  S
C61          C92   1.463       .  S
Co63        Cl74   2.473       .  S
N64          C75   1.349       .  A
C65        C1427   1.459       .  S
N66        C1445   1.350       .  A
N66         N754   1.327       .  A
Co67        Cl74   2.423       .  S
C68         N757   1.337       .  A
C69        C1455   1.463       .  S
N70         C742   1.335       .  A
N70        N1454   1.321       .  A
C73         N747   1.341       .  A
Cl74      Co1430   2.426   1_455  S
N77         N749   1.323       .  A
C78          N79   1.360       .  A
C78          N83   1.361       .  A
C78         C625   1.483       .  S
N79          C80   1.357       .  A
C80          N81   1.354       .  A
N81          C82   1.352       .  A
C82          N83   1.355       .  A
C82         C122   1.460       .  S
C84          N85   1.357       .  A
C84          N89   1.367       .  A
C84         C606   1.503       .  S
N85          C86   1.353       .  A
C86          N87   1.352       .  A
C86         C110   1.459       .  S
N87          C88   1.354       .  A
C88          N89   1.360       .  A
C90          N91   1.361       .  A
C90          N95   1.356       .  A
C90         C590   1.490       .  S
N91          C92   1.358       .  A
C92          N93   1.356       .  A
N93          C94   1.355       .  A
C94          N95   1.354       .  A
C94         C117   1.461       .  S
C96          N97   1.364       .  A
C96         N101   1.362       .  A
C96         C574   1.497       .  S
N97          C98   1.361       .  A
C98          N99   1.355       .  A
N99         C100   1.354       .  A
C100        N101   1.357       .  A
C100        C138   1.463       .  S
C102        N120   1.349       .  A
C102        C139   1.454       .  S
N103        N120   1.324       .  A
N103        N125   1.320       .  A
N103       Co140   2.083       .  S
C104        N129   1.345       .  A
C104        C142   1.463       .  S
C104        H149   1.082       .  S
H105        C146   1.082       .  S
C106        N130   1.337       .  A
C106        C110   1.453       .  S
C106        H135   1.082       .  S
Co107       N125   2.073       .  S
Co107       N115   2.087       .  S
Co107       N147   2.082       .  S
Co107       N123   2.079       .  S
Co107      Cl151   2.429       .  S
N108        C146   1.342       .  A
N108        N115   1.319       .  A
N108       Co109   2.080       .  S
Co109       N112   2.086       .  S
Co109       N129   2.094       .  S
Co109       N116   2.082       .  S
Co109      Cl151   2.470       .  S
C110        N148   1.350       .  A
N111        N118   1.319       .  A
N111        N141   1.326       .  A
N111       Co144   2.087       .  S
N112        N130   1.320       .  A
N112        N148   1.326       .  A
N113        C142   1.346       .  A
N113        N123   1.322       .  A
H114        C139   1.082       .  S
N115        N136   1.325       .  A
N116        N134   1.321       .  A
N116        N121   1.324       .  A
C117        N121   1.349       .  A
C117        C145   1.454       .  S
N118        C133   1.339       .  A
N118       Co140   2.078       .  S
C119        N147   1.338       .  A
C119        C122   1.455       .  S
C119        H153   1.082       .  S
C122        N143   1.348       .  A
N123        N129   1.320       .  A
N124        C150   1.344       .  A
N124        N126   1.320       .  A
N124       Co140   2.089       .  S
N125        C139   1.337       .  A
N126        N154   1.322       .  A
N126       Co144   2.081       .  S
H127        C150   1.082       .  S
H128        C145   1.082       .  S
N130       Co144   2.075       .  S
N131        N143   1.324       .  A
N131        N147   1.321       .  A
N131       Co140   2.080       .  S
C132        N136   1.349       .  A
C132        C146   1.458       .  S
C133        C152   1.458       .  S
C133        H137   1.079       .  S
N134        C145   1.339       .  A
N134       Co144   2.081       .  S
C138        N154   1.347       .  A
C138        C150   1.462       .  S
Co140      Cl151   2.468       .  S
N141        C152   1.350       .  A
Co144      Cl151   2.430       .  S
N155        C160   1.351       .  A
N155        C159   1.351       .  A
N155        H187   1.037       .  S
N156        C863   1.348       .  A
N156        C864   1.347       .  A
N157        C162   1.352       .  A
N157        C161   1.353       .  A
N157        H188   1.038       .  S
N158        C165   1.350       .  A
N158        C166   1.349       .  A
C159        C167   1.386       .  A
C159        C175   1.411       .  A
C160        C176   1.413       .  A
C160        C168   1.388       .  A
C161        C169   1.388       .  A
C161        C178   1.416       .  A
C162        C177   1.414       .  A
C162        C170   1.386       .  A
C163        N856   1.349       .  A
C163        C171   1.385       .  A
C163        C875   1.408       .  A
C164        N856   1.347       .  A
C164        C172   1.387       .  A
C164        C878   1.409       .  A
C165        C173   1.385       .  A
C165        C176   1.409       .  A
C166        C174   1.387       .  A
C166        C177   1.412       .  A
C167        H179   1.082       .  S
C167        C168   1.375       .  A
C168        H180   1.082       .  S
C169        H181   1.082       .  S
C169        C170   1.377       .  A
C170        H182   1.082       .  S
C171        H183   1.082       .  S
C171        C172   1.373       .  A
C172        H184   1.082       .  S
C173        H185   1.082       .  S
C173        C174   1.375       .  A
C174        H186   1.082       .  S
C175       C1242   1.483       .  S
C175        C863   1.407       .  A
C176        C558   1.483       .  S
C177        C657   1.489       .  S
C178       C1309   1.481       .  S
C178        C864   1.408       .  A
N189        C194   1.352       .  A
N189        C193   1.352       .  A
N189        H221   1.037       .  S
N190        C197   1.350   1_556  A
N190        C198   1.348       .  A
N191        C196   1.353       .  A
N191        C195   1.353       .  A
N191        H222   1.033       .  S
N192        C199   1.351   1_556  A
N192        C200   1.350       .  A
C193        C201   1.387       .  A
C193       C1609   1.414   1_455  A
C194        C210   1.415       .  A
C194        C202   1.387       .  A
C195        C203   1.388       .  A
C195       C1612   1.419   1_455  A
C196        C211   1.417       .  A
C196        C204   1.387       .  A
C197        C209   1.408       .  A
C197        C205   1.384       .  A
C198        C212   1.413       .  A
C198        C206   1.388       .  A
C199        C207   1.385       .  A
C199        C210   1.410       .  A
C200        C208   1.387       .  A
C200        C211   1.413       .  A
C201        H213   1.082   1_455  S
C201        C202   1.375       .  A
C202        H214   1.082       .  S
C203        H215   1.082   1_455  S
C203        C204   1.375       .  A
C204        H216   1.082       .  S
C205        H217   1.082       .  S
C205        C206   1.375   1_554  A
C206        H218   1.082       .  S
C207        H219   1.082       .  S
C207        C208   1.372   1_554  A
C208        H220   1.082       .  S
C209        C641   1.485       .  S
C209       C1593   1.409       .  A
C210        C622   1.487       .  S
C211        C510   1.488       .  S
C212        C526   1.487       .  S
C212       C1595   1.420       .  A
N223        C228   1.351       .  A
N223        C227   1.352       .  A
N223        H255   1.034       .  S
N224        C231   1.351       .  A
N224        C232   1.349       .  A
N225        C230   1.354       .  A
N225        C229   1.354       .  A
N225        H256   1.035       .  S
N226       C1633   1.350       .  A
N226       C1634   1.348       .  A
C227        C235   1.387       .  A
C227        C243   1.413       .  A
C228        C236   1.387       .  A
C228       C1644   1.412   1_455  A
C229        C237   1.386       .  A
C229        C246   1.418       .  A
C230        C238   1.388       .  A
C230       C1645   1.419   1_455  A
C231        C243   1.410       .  A
C231        C239   1.385       .  A
C232        C246   1.412       .  A
C232        C240   1.387       .  A
C233       N1626   1.349       .  A
C233        C241   1.385       .  A
C233        C244   1.408       .  A
C234       N1626   1.347       .  A
C234        C242   1.387       .  A
C234        C245   1.408       .  A
C235        H247   1.082       .  S
C235        C236   1.374       .  A
C236        H248   1.082   1_455  S
C237        H249   1.082       .  S
C237        C238   1.378       .  A
C238        H250   1.082   1_455  S
C239        H251   1.082       .  S
C239        C240   1.376       .  A
C240        H252   1.082       .  S
C241        H253   1.082       .  S
C241        C242   1.376       .  A
C242        H254   1.082       .  S
C243        C593   1.487       .  S
C244        C686   1.485       .  S
C244       C1628   1.413       .  A
C245        C497   1.479       .  S
C245       C1630   1.416       .  A
C246        C481   1.491       .  S
N257        C262   1.352       .  A
N257        C261   1.353       .  A
N257        H289   1.038       .  S
N258        C265   1.353   1_554  A
N258        C266   1.350       .  A
N259        C264   1.356       .  A
N259        C263   1.354       .  A
N259        H290   1.030       .  S
N260        C967   1.348   1_554  A
N260        C968   1.349       .  A
C261        C269   1.387       .  A
C261        C277   1.414       .  A
C262        C270   1.387       .  A
C262        C978   1.413       .  A
C263        C271   1.389       .  A
C263        C280   1.424       .  A
C264        C272   1.387       .  A
C264        C979   1.422       .  A
C265        C277   1.414       .  A
C265        C273   1.384       .  A
C266        C280   1.419       .  A
C266        C274   1.388       .  A
C267        N960   1.350   1_546  A
C267        C275   1.385       .  A
C267        C278   1.411       .  A
C268        N960   1.349   1_545  A
C268        C276   1.387       .  A
C268        C279   1.413       .  A
C269        H281   1.082       .  S
C269        C270   1.373       .  A
C270        H282   1.083       .  S
C271        H283   1.082       .  S
C271        C272   1.375       .  A
C272        H284   1.082       .  S
C273        H285   1.082       .  S
C273        C274   1.376   1_556  A
C274        H286   1.082       .  S
C275        H287   1.082       .  S
C275        C276   1.377   1_556  A
C276        H288   1.082       .  S
C277        C462   1.494       .  S
C278        C446   1.480       .  S
C278        C962   1.411   1_545  A
C279        C577   1.493       .  S
C279        C964   1.419   1_545  A
C280        C670   1.491       .  S
C291        N292   1.359       .  A
C291        N296   1.358       .  A
C291        C465   1.489       .  S
N292        C293   1.356       .  A
C293        N294   1.358       .  A
C293        C327   1.466       .  S
N294        C295   1.358       .  A
C295        N296   1.358       .  A
C295        C422   1.466       .  S
C297        N298   1.358       .  A
C297        N302   1.365       .  A
C297        C529   1.503       .  S
N298        C299   1.354       .  A
C299        N300   1.352       .  A
C299        C400   1.461       .  S
N300        C301   1.354       .  A
C301        N302   1.359       .  A
C301        C347   1.461       .  S
C303        N304   1.363       .  A
C303        N308   1.354       .  A
C303        C449   1.496       .  S
N304        C305   1.360       .  A
C305        N306   1.359       .  A
C305        C407   1.467       .  S
N306        C307   1.356       .  A
C307        N308   1.353       .  A
C307        C363   1.465       .  S
C309        N310   1.364       .  A
C309        N314   1.359       .  A
C309        C513   1.495       .  S
N310        C311   1.359       .  A
C311        N312   1.357       .  A
C311        C377   1.470       .  S
N312        C313   1.357       .  A
C313        N314   1.357       .  A
C313        C432   1.465       .  S
C315        N316   1.365       .  A
C315        N320   1.358       .  A
C315        C478   1.492       .  S
N316        C317   1.359       .  A
C317        N318   1.358       .  A
C317        C342   1.471       .  S
N318        C319   1.356       .  A
C319        N320   1.356       .  A
C319        C428   1.463       .  S
C321        N322   1.356       .  A
C321        N326   1.358       .  A
C321        C545   1.484       .  S
N322        C323   1.353       .  A
C323        N324   1.360       .  A
C323        C367   1.466       .  S
N324        C325   1.362       .  A
C325        N326   1.359       .  A
C325        C442   1.469       .  S
C327        N345   1.350       .  A
C327        C364   1.456       .  S
N328        N345   1.325       .  A
N328        N350   1.321       .  A
N328       Co365   2.086       .  S
C329        N354   1.340       .  A
C329        C367   1.461       .  S
C329        H374   1.082       .  S
H330        C371   1.082       .  S
C331        N355   1.336       .  A
C331        C335   1.453       .  S
C331        H360   1.082       .  S
Co332       N350   2.082       .  S
Co332       N340   2.073       .  S
Co332       N372   2.072       .  S
Co332       N348   2.083       .  S
Co332      Cl376   2.428       .  S
N333        C371   1.344       .  A
N333        N340   1.321       .  A
N333       Co334   2.094       .  S
Co334       N337   2.084       .  S
Co334       N354   2.087       .  S
Co334       N341   2.104       .  S
Co334      Cl376   2.479       .  S
C335        N373   1.350       .  A
C335        C390   1.461       .  S
N336        N343   1.321       .  A
N336        N366   1.324       .  A
N336       Co369   2.087       .  S
N337        N355   1.321       .  A
N337        N373   1.326       .  A
N338        C367   1.347       .  A
N338        N348   1.325       .  A
H339        C364   1.082       .  S
N340        N361   1.321       .  A
N341        N359   1.321       .  A
N341        N346   1.330       .  A
C342        N346   1.355       .  A
C342        C370   1.453       .  S
N343        C358   1.345       .  A
N343       Co365   2.094       .  S
C344        N372   1.335       .  A
C344        C347   1.452       .  S
C344        H378   1.082       .  S
C347        N368   1.351       .  A
N348        N354   1.321       .  A
N349        C375   1.337       .  A
N349        N351   1.320       .  A
N349       Co365   2.081       .  S
N350        C364   1.341       .  A
N351        N379   1.326       .  A
N351       Co369   2.082       .  S
H352        C375   1.080       .  S
H353        C370   1.082       .  S
N355       Co369   2.078       .  S
N356        N368   1.327       .  A
N356        N372   1.320       .  A
N356       Co365   2.092       .  S
C357        N361   1.344       .  A
C357        C371   1.462       .  S
C357        C382   1.459       .  S
C358        C377   1.463       .  S
C358        H362   1.082       .  S
N359        C370   1.337       .  A
N359       Co369   2.081       .  S
C363        N379   1.348       .  A
C363        C375   1.457       .  S
Co365      Cl376   2.473       .  S
N366        C377   1.348       .  A
Co369      Cl376   2.429       .  S
C380        N381   1.362       .  A
C380        N385   1.355       .  A
C380        C494   1.494       .  S
N381        C382   1.356       .  A
C382        N383   1.354       .  A
N383        C384   1.354       .  A
C384        N385   1.354       .  A
C384        C392   1.455       .  S
C386        N387   1.357       .  A
C386        N391   1.364       .  A
C386        C561   1.495       .  S
N387        C388   1.354       .  A
C388        N389   1.351       .  A
C388        C412   1.459       .  S
N389        C390   1.353       .  A
C390        N391   1.358       .  A
C392        N410   1.350       .  A
C392        C429   1.453       .  S
N393        N410   1.324       .  A
N393        N415   1.319       .  A
N393      Co1830   2.080       .  S
C394        N419   1.344       .  A
C394        C432   1.463       .  S
C394        H439   1.082       .  S
H395        C436   1.081       .  S
C396        N420   1.336       .  A
C396        C400   1.454       .  S
C396        H425   1.082       .  S
Co397       N437   2.076       .  S
Co397       N413   2.079       .  S
Co397      N1815   2.076       .  S
Co397      N1805   2.084       .  S
Co397      Cl441   2.427       .  S
N398        C436   1.341       .  A
N398        N405   1.320       .  A
N398      Co1799   2.080       .  S
Co399       N419   2.092       .  S
Co399      N1798   2.068       .  S
Co399      N2502   2.086       .  S
Co399      N1106   2.078       .  S
Co399      Cl441   2.469       .  S
C400        N438   1.352       .  A
N401        N408   1.320   1_545  A
N401        N431   1.326       .  A
N401      Co1834   2.089       .  S
N402        N420   1.320       .  A
N402        N438   1.327       .  A
N402      Co2499   2.093   1_545  S
N403        C432   1.346       .  A
N403        N413   1.323       .  A
H404        C429   1.082       .  S
N405        N426   1.324       .  A
N405      Co1797   2.083       .  S
N406        N424   1.320       .  A
N406        N411   1.327       .  A
N406      Co1099   2.086   1_545  S
C407        N411   1.351       .  A
C407        C435   1.455       .  S
N408        C423   1.341   1_565  A
N408      Co2530   2.083       .  S
C409        N437   1.336       .  A
C409        C412   1.453       .  S
C409        H443   1.082       .  S
C412        N433   1.349       .  A
N413        N419   1.320       .  A
N414        C440   1.342       .  A
N414        N416   1.320       .  A
N414      Co1130   2.086   1_545  S
N415        C429   1.336       .  A
N415      Co1797   2.071       .  S
N416        N444   1.324       .  A
N416       Co434   2.082       .  S
H417        C440   1.082   1_565  S
H418        C435   1.081       .  S
N420      Co1834   2.076       .  S
N421        N433   1.325       .  A
N421        N437   1.320       .  A
N421       Co430   2.078       .  S
C422        N426   1.348       .  A
C422        C436   1.459       .  S
C423        C442   1.459       .  S
C423        H427   1.081   1_545  S
N424        C435   1.339       .  A
N424       Co434   2.083       .  S
C428        N444   1.348       .  A
C428        C440   1.460       .  S
Co430      N1793   2.089       .  S
Co430      N2508   2.075       .  S
Co430      N1114   2.086       .  S
Co430      Cl441   2.470       .  S
N431        C442   1.349       .  A
Co434      N1801   2.087   1_455  S
Co434      N1820   2.072   1_455  S
Co434     Cl1141   2.429   1_545  S
Cl441     Co1134   2.429       .  S
C445        H452   1.083       .  S
C445        C446   1.397       .  A
C445        C450   1.404       .  A
C446        C447   1.413       .  A
C447        C448   1.403       .  A
C447        C454   1.519   1_545  S
C448        H453   1.084       .  S
C448        C449   1.410       .  A
C449        C450   1.431       .  A
C450        C451   1.523       .  S
C451        F455   1.385       .  S
C451        F456   1.382       .  S
C451        F457   1.384       .  S
C454        F458   1.383   1_565  S
C454        F459   1.381       .  S
C454        F460   1.383       .  S
C461        H468   1.083       .  S
C461        C462   1.403       .  A
C461        C466   1.409       .  A
C462        C463   1.417       .  A
C463        C464   1.404       .  A
C463        C470   1.519       .  S
C464        H469   1.082       .  S
C464        C465   1.405       .  A
C465        C466   1.422       .  A
C466        C467   1.519       .  S
C467        F471   1.385       .  S
C467        F472   1.382       .  S
C467        F473   1.384       .  S
C470        F474   1.379       .  S
C470        F475   1.382       .  S
C470        F476   1.386       .  S
C477        H484   1.082       .  S
C477        C478   1.407       .  A
C477        C482   1.403       .  A
C478        C479   1.424       .  A
C479        C480   1.410       .  A
C479        C486   1.520       .  S
C480        H485   1.083       .  S
C480        C481   1.404       .  A
C481        C482   1.414       .  A
C482        C483   1.520       .  S
C483        F487   1.385       .  S
C483        F488   1.381       .  S
C483        F489   1.382       .  S
C486        F490   1.382       .  S
C486        F491   1.384       .  S
C486        F492   1.385       .  S
C493        H500   1.082       .  S
C493        C494   1.410       .  A
C493        C498   1.402       .  A
C494        C495   1.432       .  A
C495        C496   1.406       .  A
C495        C502   1.525       .  S
C496       H1901   1.083       .  S
C496        C497   1.397       .  A
C497        C498   1.409       .  A
C498        C499   1.519       .  S
C499        F503   1.384       .  S
C499        F504   1.383       .  S
C499        F505   1.382       .  S
H501       C1896   1.083   1_455  S
C502        F506   1.384       .  S
C502        F507   1.383       .  S
C502       F1908   1.385       .  S
F508       C1902   1.385   1_455  S
C509        H516   1.084       .  S
C509        C510   1.401       .  A
C509        C514   1.408       .  A
C510        C511   1.412       .  A
C511        C512   1.404       .  A
C511        C518   1.519       .  S
C512        H517   1.082       .  S
C512        C513   1.409       .  A
C513        C514   1.425       .  A
C514        C515   1.517       .  S
C515        F519   1.386       .  S
C515        F520   1.382       .  S
C515        F521   1.382       .  S
C518        F522   1.382       .  S
C518        F523   1.383       .  S
C518        F524   1.384       .  S
C525        H532   1.083       .  S
C525        C526   1.395       .  A
C525        C530   1.407       .  A
C526        C527   1.410       .  A
C527        C528   1.407       .  A
C527        C534   1.519       .  S
C528        H533   1.082       .  S
C528        C529   1.413       .  A
C529        C530   1.434       .  A
C530        C531   1.524       .  S
C531        F536   1.383       .  S
C531        F537   1.384       .  S
C531       F1935   1.385       .  S
C534        F538   1.382       .  S
C534        F539   1.383       .  S
C534        F540   1.384       .  S
F535       C1931   1.385   1_455  S
C541        H548   1.083       .  S
C541        C542   1.403       .  A
C541        C546   1.409       .  A
C542        C875   1.485       .  S
C542        C543   1.413       .  A
C543        C544   1.399       .  A
C543        C550   1.521       .  S
C544        H549   1.082       .  S
C544        C545   1.406       .  A
C545        C546   1.421       .  A
C546        C547   1.519       .  S
C547        F551   1.385       .  S
C547        F552   1.382       .  S
C547        F553   1.384       .  S
C550        F554   1.381       .  S
C550        F555   1.383       .  S
C550        F556   1.385       .  S
C557        H564   1.083       .  S
C557        C558   1.398       .  A
C557        C562   1.405       .  A
C558        C559   1.413       .  A
C559        C560   1.403       .  A
C559        C566   1.517       .  S
C560        H565   1.084       .  S
C560        C561   1.411       .  A
C561        C562   1.429       .  A
C562        C563   1.523       .  S
C563        F567   1.384       .  S
C563        F568   1.383       .  S
C563        F569   1.383       .  S
C566        F570   1.383       .  S
C566        F571   1.381       .  S
C566        F572   1.384       .  S
C573        H580   1.082       .  S
C573        C574   1.410       .  A
C573        C578   1.407       .  A
C574        C575   1.421       .  A
C575        C576   1.411       .  A
C575        C582   1.517       .  S
C576        H581   1.083       .  S
C576        C577   1.403       .  A
C577        C578   1.414       .  A
C578        C579   1.520       .  S
C579        F583   1.385       .  S
C579        F584   1.383       .  S
C579        F585   1.381       .  S
C582        F586   1.384       .  S
C582        F587   1.382       .  S
C582        F588   1.385       .  S
C589        H596   1.083       .  S
C589        C590   1.409       .  A
C589        C594   1.406       .  A
C590        C591   1.426       .  A
C591        C592   1.405       .  A
C591        C598   1.523       .  S
C592        H597   1.083       .  S
C592        C593   1.400       .  A
C593        C594   1.413       .  A
C594        C595   1.518       .  S
C595        F599   1.385       .  S
C595        F600   1.383       .  S
C595        F601   1.382       .  S
C598        F602   1.384       .  S
C598        F603   1.383       .  S
C598        F604   1.384       .  S
C605        H612   1.084       .  S
C605        C606   1.411       .  A
C605        C610   1.404       .  A
C606        C607   1.433       .  A
C607        C608   1.407       .  A
C607        C614   1.523       .  S
C608        H613   1.083       .  S
C608        C609   1.397       .  A
C609        C878   1.484       .  S
C609        C610   1.413       .  A
C610        C611   1.519   1_545  S
C611        F615   1.383       .  S
C611        F616   1.381       .  S
C611        F617   1.384       .  S
C614        F618   1.383       .  S
C614        F619   1.384       .  S
C614        F620   1.386       .  S
C621        H628   1.083       .  S
C621        C622   1.404       .  A
C621        C626   1.409       .  A
C622        C623   1.416       .  A
C623        C624   1.398       .  A
C623        C630   1.519       .  S
C624        H629   1.084       .  S
C624        C625   1.404       .  A
C625        C626   1.421       .  A
C626        C627   1.520       .  S
C627        F631   1.385       .  S
C627        F632   1.384       .  S
C627        F633   1.381       .  S
C630        F634   1.382       .  S
C630        F635   1.383       .  S
C630        F636   1.384       .  S
C637        H644   1.082       .  S
C637        C638   1.412       .  A
C637        C642   1.404       .  A
C638        C639   1.430       .  A
C639        C640   1.409       .  A
C639        C646   1.519       .  S
C640        H645   1.083       .  S
C640        C641   1.397       .  A
C641        C642   1.410       .  A
C642       C2043   1.519       .  S
C643       C2042   1.519   1_455  S
C643        F647   1.384       .  S
C643        F648   1.382       .  S
C643        F649   1.383       .  S
C646        F650   1.381       .  S
C646        F651   1.383       .  S
C646        F652   1.385       .  S
C653        H660   1.082       .  S
C653        C654   1.411       .  A
C653        C658   1.406       .  A
C654        C655   1.423       .  A
C655        C656   1.405       .  A
C655        C662   1.518       .  S
C656        H661   1.083       .  S
C656        C657   1.400       .  A
C657        C658   1.415       .  A
C658        C659   1.522       .  S
C659        F663   1.385       .  S
C659        F664   1.381       .  S
C659        F665   1.383       .  S
C662        F666   1.382       .  S
C662        F667   1.383       .  S
C662        F668   1.385       .  S
C669        H676   1.083       .  S
C669        C670   1.397       .  A
C669        C674   1.409       .  A
C670        C671   1.411       .  A
C671        C672   1.405       .  A
C671        C678   1.518       .  S
C672        H677   1.081       .  S
C672        C673   1.411       .  A
C673        C674   1.434       .  A
C674        C675   1.523       .  S
C675        F679   1.386       .  S
C675        F680   1.383       .  S
C675        F681   1.383       .  S
C678        F682   1.382       .  S
C678        F683   1.382       .  S
C678        F684   1.385       .  S
C685        H692   1.083       .  S
C685        C686   1.399       .  A
C685        C690   1.405       .  A
C686        C687   1.412       .  A
C687        C688   1.406       .  A
C687        C694   1.519       .  S
C688        H693   1.082       .  S
C688        C689   1.410       .  A
C689        C690   1.427       .  A
C690        C691   1.522       .  S
C691        F695   1.386       .  S
C691        F696   1.382       .  S
C691        F697   1.383       .  S
C694        F698   1.382       .  S
C694        F700   1.385       .  S
C694       F2099   1.383       .  S
F699       C2094   1.383       .  S
C701        N702   1.359       .  A
C701        N706   1.360       .  A
C701       C1389   1.496       .  S
N702        C703   1.358       .  A
C703        N704   1.357       .  A
C703        C725   1.468       .  S
N704        C705   1.357       .  A
C705        N706   1.355       .  A
C705        C832   1.463       .  S
C707        N708   1.357       .  A
C707        N712   1.362       .  A
C707       C1373   1.494       .  S
N708        C709   1.355       .  A
C709        N710   1.356       .  A
C709        C802   1.462       .  S
N710        C711   1.356       .  A
C711        N712   1.357       .  A
C711        C755   1.461       .  S
C713        N714   1.359       .  A
C713        N718   1.361       .  A
C713       C1354   1.498       .  S
N714        C715   1.356       .  A
C715        N716   1.356       .  A
C715        C842   1.463       .  S
N716        C717   1.357       .  A
C717        N718   1.356       .  A
C717        C775   1.460       .  S
C719        N720   1.358       .  A
C719        N724   1.361       .  A
C719       C1338   1.491       .  S
N720        C721   1.359       .  A
C721        N722   1.357       .  A
C721        C852   1.462       .  S
N722        C723   1.356       .  A
C723        N724   1.358       .  A
C723        C765   1.467       .  S
C725       N2143   1.350       .  A
C725        C762   1.457       .  S
N726        N743   1.322       .  A
N726       N2148   1.320       .  A
N726       Co763   2.070   1_655  S
C727       C2165   1.455       .  S
C727        H772   1.082   1_655  S
H728        C769   1.082   1_455  S
C729        N753   1.336       .  A
C729        C733   1.451       .  S
C729        H758   1.081       .  S
Co730       N748   2.088       .  S
Co730       N738   2.082       .  S
Co730       N770   2.080   1_565  S
Co730       N746   2.093   1_565  S
Co730     Cl2174   2.430       .  S
N731        C769   1.344       .  A
N731       N2138   1.319       .  A
N731       Co732   2.089   1_655  S
Co732       N735   2.081       .  S
Co732       N752   2.082   1_465  S
Co732       N739   2.098   1_565  S
Co732      Cl774   2.474       .  S
C733        N771   1.350       .  A
C733        C780   1.459       .  S
N734        N741   1.318       .  A
N734        N764   1.322       .  A
N734       Co767   2.078       .  S
N735        N753   1.320       .  A
N735        N771   1.325       .  A
N736        C765   1.352       .  A
H737        C762   1.082       .  S
N738       N2131   1.321       .  A
N738        N759   1.322       .  A
N739        N757   1.321       .  A
C740        N744   1.353       .  A
C740        C768   1.454       .  S
C740        C798   1.466       .  S
N741        C756   1.343       .  A
N741       Co763   2.083       .  S
C742        C745   1.453       .  S
C742        H776   1.082       .  S
N743       C2125   1.346       .  A
C745       N2166   1.350       .  A
C745        C788   1.459       .  S
N746       N2152   1.321       .  A
N747        N749   1.320       .  A
N747       Co763   2.078   1_545  S
N748        C762   1.341       .  A
N748       N2126   1.320       .  A
N749       Co767   2.084   1_545  S
H750        C773   1.082       .  S
H751        C768   1.082       .  S
N752       N2146   1.322       .  A
N753       Co767   2.074       .  S
N754       N2170   1.320       .  A
N754       Co763   2.086   1_645  S
C755        N759   1.347       .  A
C755       C2169   1.460       .  S
C756        C775   1.461       .  S
C756        H760   1.082       .  S
N757       Co767   2.079   1_545  S
C761        N777   1.344       .  A
C761        C773   1.460       .  S
C761        C792   1.458       .  S
Co763      Cl774   2.473       .  S
N764        C775   1.346       .  A
C765       C2127   1.455       .  S
N766       C2145   1.349       .  A
Co767      Cl774   2.422       .  S
C769       C2155   1.462       .  S
N770       N2154   1.321       .  A
Cl774     Co2130   2.425   1_455  S
C778        N779   1.358       .  A
C778        N783   1.357       .  A
C778       C1325   1.474       .  S
N779        C780   1.356       .  A
C780        N781   1.356       .  A
N781        C782   1.355       .  A
C782        N783   1.352       .  A
C782        C822   1.458       .  S
C784        N785   1.360       .  A
C784        N789   1.366       .  A
C784       C1306   1.502       .  S
N785        C786   1.355       .  A
C786        N787   1.349       .  A
C786        C810   1.457       .  S
N787        C788   1.351       .  A
C788        N789   1.360       .  A
C790        N791   1.359       .  A
C790        N795   1.353       .  A
C790       C1290   1.489       .  S
N791        C792   1.354       .  A
C792        N793   1.357       .  A
N793        C794   1.355       .  A
C794        N795   1.352       .  A
C794        C817   1.459       .  S
C796        N797   1.360       .  A
C796        N801   1.364       .  A
C796       C1274   1.505       .  S
N797        C798   1.357       .  A
C798        N799   1.356       .  A
N799        C800   1.356       .  A
C800        N801   1.358       .  A
C800        C838   1.464       .  S
C802        N820   1.351       .  A
C802        C839   1.454       .  S
N803        N820   1.326       .  A
N803        N825   1.320       .  A
N803       Co840   2.091       .  S
C804        N829   1.344       .  A
C804        C842   1.463       .  S
C804        H849   1.082       .  S
H805        C846   1.082       .  S
C806        N830   1.336       .  A
C806        C810   1.454       .  S
C806        H835   1.082       .  S
Co807       N825   2.076       .  S
Co807       N815   2.079       .  S
Co807       N847   2.072       .  S
Co807       N823   2.078       .  S
Co807      Cl851   2.426       .  S
N808        C846   1.341       .  A
N808        N815   1.319       .  A
N808       Co809   2.080       .  S
Co809       N812   2.079       .  S
Co809       N829   2.091       .  S
Co809       N816   2.080       .  S
Co809      Cl851   2.471       .  S
C810        N848   1.348       .  A
N811        N818   1.320       .  A
N811        N841   1.325       .  A
N811       Co844   2.089       .  S
N812        N830   1.321       .  A
N812        N848   1.325       .  A
N813        C842   1.346       .  A
N813        N823   1.322       .  A
H814        C839   1.082       .  S
N815        N836   1.323       .  A
N816        N834   1.321       .  A
N816        N821   1.323       .  A
C817        N821   1.349       .  A
C817        C845   1.454       .  S
N818        C833   1.338       .  A
N818       Co840   2.072       .  S
C819        N847   1.337       .  A
C819        C822   1.451       .  S
C819        H853   1.082       .  S
C822        N843   1.350       .  A
N823        N829   1.320       .  A
N824        C850   1.345       .  A
N824        N826   1.320       .  A
N824       Co840   2.095       .  S
N825        C839   1.338       .  A
N826        N854   1.322       .  A
N826       Co844   2.078       .  S
H827        C850   1.082       .  S
H828        C845   1.082       .  S
N830       Co844   2.078       .  S
N831        N843   1.325       .  A
N831        N847   1.320       .  A
N831       Co840   2.082       .  S
C832        N836   1.347       .  A
C832        C846   1.459       .  S
C833        C852   1.455       .  S
C833        H837   1.081       .  S
N834        C845   1.340       .  A
N834       Co844   2.079       .  S
C838        N854   1.345       .  A
C838        C850   1.464       .  S
Co840      Cl851   2.471       .  S
N841        C852   1.350       .  A
Co844      Cl851   2.426       .  S
N855        C860   1.352       .  A
N855        C859   1.352       .  A
N855        H887   1.036       .  S
N857        C862   1.354       .  A
N857        C861   1.355       .  A
N857        H888   1.037       .  S
N858        C865   1.351       .  A
N858        C866   1.350       .  A
C859        C867   1.385       .  A
C859        C875   1.412   1_565  A
C860        C876   1.417       .  A
C860        C868   1.389       .  A
C861        C869   1.387       .  A
C861        C878   1.418   1_565  A
C862        C877   1.419       .  A
C862        C870   1.387       .  A
C863        C871   1.385       .  A
C864        C872   1.387       .  A
C865        C873   1.386       .  A
C865        C876   1.414       .  A
C866        C874   1.387       .  A
C866        C877   1.412       .  A
C867        H879   1.082       .  S
C867        C868   1.372       .  A
C868        H880   1.081       .  S
C869        H881   1.082       .  S
C869        C870   1.377       .  A
C870        H882   1.082       .  S
C871        H883   1.082       .  S
C871        C872   1.374       .  A
C872        H884   1.082       .  S
C873        H885   1.082       .  S
C873        C874   1.375       .  A
C874        H886   1.082       .  S
C876       C1258   1.486       .  S
C877       C1357   1.487       .  S
N889        C894   1.349       .  A
N889        C893   1.350       .  A
N889        H921   1.038       .  S
N890        C897   1.351   1_556  A
N890        C898   1.350       .  A
N891        C896   1.354       .  A
N891        C895   1.354       .  A
N891        H922   1.035       .  S
N892        C899   1.351   1_556  A
N892        C900   1.350       .  A
C893        C901   1.387       .  A
C893       C2309   1.409   1_455  A
C894        C910   1.410       .  A
C894        C902   1.387       .  A
C895        C903   1.388       .  A
C895       C2312   1.419   1_455  A
C896        C911   1.419       .  A
C896        C904   1.388       .  A
C897        C909   1.412       .  A
C897        C905   1.385       .  A
C898        C912   1.417       .  A
C898        C906   1.388       .  A
C899        C907   1.385       .  A
C899        C910   1.413       .  A
C900        C908   1.387       .  A
C900        C911   1.414       .  A
C901        H913   1.082   1_455  S
C901        C902   1.373       .  A
C902        H914   1.082       .  S
C903        H915   1.082       .  S
C903        C904   1.376       .  A
C904        H916   1.082       .  S
C905        H917   1.082       .  S
C905        C906   1.373   1_554  A
C906        H918   1.082       .  S
C907        H919   1.082       .  S
C907        C908   1.377   1_554  A
C908        H920   1.082       .  S
C909       C1341   1.488       .  S
C909       C2293   1.413       .  A
C910       C1322   1.486       .  S
C911       C1210   1.491       .  S
C912       C1226   1.487       .  S
C912       C2295   1.421       .  A
N923        C928   1.349       .  A
N923        C927   1.349       .  A
N923        H955   1.040       .  S
N924        C931   1.348       .  A
N924        C932   1.348       .  A
N925        C930   1.352       .  A
N925        C929   1.353       .  A
N925        H956   1.041       .  S
N926       C2333   1.349       .  A
N926       C2334   1.347       .  A
C927        C935   1.388       .  A
C927        C943   1.411       .  A
C928       C2344   1.410   1_455  A
C928        C936   1.387       .  A
C929        C937   1.387       .  A
C929        C946   1.417       .  A
C930       C2345   1.417   1_455  A
C930        C938   1.388       .  A
C931        C943   1.407       .  A
C931        C939   1.386       .  A
C932        C946   1.410       .  A
C932        C940   1.386       .  A
C933       N2326   1.350       .  A
C933        C941   1.384       .  A
C933        C944   1.410       .  A
C934       N2326   1.348       .  A
C934        C942   1.387       .  A
C934        C945   1.410       .  A
C935        H947   1.082       .  S
C935        C936   1.372       .  A
C936        H948   1.082   1_455  S
C937        H949   1.082       .  S
C937        C938   1.377       .  A
C938        H950   1.082   1_455  S
C939        H951   1.082       .  S
C939        C940   1.374       .  A
C940        H952   1.082       .  S
C941        H953   1.082       .  S
C941        C942   1.375       .  A
C942        H954   1.082       .  S
C943       C1293   1.477       .  S
C944       C1386   1.483       .  S
C944       C2328   1.410       .  A
C945       C1197   1.484       .  S
C945       C2330   1.416       .  A
C946       C1181   1.487       .  S
N957        C962   1.350       .  A
N957        C961   1.350       .  A
N957        H989   1.035       .  S
N958        C965   1.349   1_554  A
N958        C966   1.347       .  A
N959        C964   1.355       .  A
N959        C963   1.354       .  A
N959        H990   1.038       .  S
C961        C969   1.387       .  A
C961        C977   1.410       .  A
C962        C970   1.388       .  A
C963        C971   1.386       .  A
C963        C980   1.417       .  A
C964        C972   1.387       .  A
C965        C977   1.407       .  A
C965        C973   1.385       .  A
C966        C980   1.408       .  A
C966        C974   1.387       .  A
C967        C975   1.385       .  A
C967        C978   1.408       .  A
C968        C976   1.387       .  A
C968        C979   1.412       .  A
C969        H981   1.082       .  S
C969        C970   1.370       .  A
C970        H982   1.082       .  S
C971        H983   1.082       .  S
C971        C972   1.378       .  A
C972        H984   1.082       .  S
C973        H985   1.082       .  S
C973        C974   1.373   1_556  A
C974        H986   1.082       .  S
C975        H987   1.082       .  S
C975        C976   1.373   1_556  A
C976        H988   1.082       .  S
C977       C1162   1.477       .  S
C978       C1146   1.481       .  S
C979       C1277   1.489       .  S
C980       C1370   1.486       .  S
C991        N992   1.362       .  A
C991        N996   1.354       .  A
C991       C1165   1.494       .  S
N992        C993   1.358       .  A
C993        N994   1.356       .  A
C993       C1027   1.463       .  S
N994        C995   1.354       .  A
C995        N996   1.354       .  A
C995       C1122   1.458       .  S
C997        N998   1.361       .  A
C997       N1002   1.365       .  A
C997       C1229   1.506       .  S
N998        C999   1.358       .  A
C999       N1000   1.353       .  A
C999       C1100   1.463       .  S
N1000      C1001   1.352       .  A
C1001      N1002   1.357       .  A
C1001      C1047   1.465       .  S
C1003      N1004   1.358       .  A
C1003      N1008   1.354       .  A
C1003      C1149   1.477       .  S
N1004      C1005   1.355       .  A
C1005      N1006   1.356       .  A
C1005      C1107   1.458       .  S
N1006      C1007   1.356       .  A
C1007      N1008   1.354       .  A
C1007      C1063   1.456       .  S
C1009      N1010   1.362       .  A
C1009      N1014   1.359       .  A
C1009      C1213   1.496       .  S
N1010      C1011   1.358       .  A
C1011      N1012   1.355       .  A
C1011      C1077   1.461       .  S
N1012      C1013   1.355       .  A
C1013      N1014   1.357       .  A
C1013      C1132   1.461       .  S
C1015      N1016   1.365       .  A
C1015      N1020   1.358       .  A
C1015      C1178   1.502       .  S
N1016      C1017   1.360       .  A
C1017      N1018   1.355       .  A
C1017      C1042   1.464       .  S
N1018      C1019   1.353       .  A
C1019      N1020   1.354       .  A
C1019      C1128   1.460       .  S
C1021      N1022   1.354       .  A
C1021      N1026   1.359       .  A
C1021      C1245   1.484       .  S
N1022      C1023   1.353       .  A
C1023      N1024   1.359       .  A
C1023      C1067   1.460       .  S
N1024      C1025   1.360       .  A
C1025      N1026   1.360       .  A
C1025      C1142   1.469       .  S
C1027      N1045   1.349       .  A
C1027      C1064   1.456       .  S
N1028      N1045   1.325       .  A
N1028      N1050   1.320       .  A
N1028     Co1065   2.079       .  S
C1029      N1054   1.337       .  A
C1029      C1067   1.456       .  S
C1029      H1074   1.082       .  S
H1030      C1071   1.082       .  S
C1031      N1055   1.337       .  A
C1031      C1035   1.455       .  S
C1031      H1060   1.082       .  S
Co1032     N1050   2.084       .  S
Co1032     N1040   2.080       .  S
Co1032     N1072   2.080       .  S
Co1032     N1048   2.081       .  S
Co1032    Cl1076   2.424       .  S
N1033      C1071   1.344       .  A
N1033      N1040   1.320       .  A
N1033     Co1034   2.085       .  S
Co1034     N1037   2.086       .  S
Co1034     N1054   2.078       .  S
Co1034     N1041   2.087       .  S
Co1034    Cl1076   2.475       .  S
C1035      N1073   1.351       .  A
C1035      C1090   1.465       .  S
N1036      N1043   1.320       .  A
N1036      N1066   1.323       .  A
N1036     Co1069   2.084       .  S
N1037      N1055   1.321       .  A
N1037      N1073   1.327       .  A
N1038      C1067   1.347       .  A
N1038      N1048   1.325       .  A
H1039      C1064   1.082       .  S
N1040      N1061   1.321       .  A
N1041      N1059   1.319       .  A
N1041      N1046   1.327       .  A
C1042      N1046   1.351       .  A
C1042      C1070   1.455       .  S
N1043      C1058   1.342       .  A
N1043     Co1065   2.081       .  S
C1044      N1072   1.337       .  A
C1044      C1047   1.455       .  S
C1044      H1078   1.082       .  S
C1047      N1068   1.351       .  A
N1048      N1054   1.321       .  A
N1049      C1075   1.337       .  A
N1049      N1051   1.320       .  A
N1049     Co1065   2.073       .  S
N1050      C1064   1.339       .  A
N1051      N1079   1.323       .  A
N1051     Co1069   2.079       .  S
H1052      C1075   1.081       .  S
H1053      C1070   1.082       .  S
N1055     Co1069   2.082       .  S
N1056      N1068   1.328       .  A
N1056      N1072   1.319       .  A
N1056     Co1065   2.087       .  S
C1057      N1061   1.346       .  A
C1057      C1071   1.461       .  S
C1057      C1082   1.460       .  S
C1058      C1077   1.458       .  S
C1058      H1062   1.082       .  S
N1059      C1070   1.338       .  A
N1059     Co1069   2.081       .  S
C1063      N1079   1.346       .  A
C1063      C1075   1.455       .  S
Co1065    Cl1076   2.474       .  S
N1066      C1077   1.348       .  A
Co1069    Cl1076   2.423       .  S
C1080      N1081   1.363       .  A
C1080      N1085   1.359       .  A
C1080      C1194   1.502       .  S
N1081      C1082   1.357       .  A
C1082      N1083   1.355       .  A
N1083      C1084   1.354       .  A
C1084      N1085   1.356       .  A
C1084      C1092   1.464       .  S
C1086      N1087   1.361       .  A
C1086      N1091   1.366       .  A
C1086      C1261   1.504       .  S
N1087      C1088   1.359       .  A
C1088      N1089   1.352       .  A
C1088      C1112   1.463       .  S
N1089      C1090   1.352       .  A
C1090      N1091   1.357       .  A
C1092      N1110   1.350       .  A
C1092      C1129   1.456       .  S
N1093      N1110   1.326       .  A
N1093      N1115   1.320       .  A
N1093     Co2530   2.088       .  S
C1094      N1119   1.343       .  A
C1094      C1132   1.460       .  S
C1094      H1139   1.082       .  S
H1095      C1136   1.081       .  S
C1096      N1120   1.335       .  A
C1096      C1100   1.452       .  S
C1096      H1125   1.082       .  S
Co1097     N2515   2.075   1_455  S
Co1097     N2505   2.086       .  S
Co1097     N1137   2.087       .  S
Co1097     N1113   2.079       .  S
Co1097    Cl1141   2.426       .  S
N1098      C1136   1.336       .  A
N1098      N1105   1.320       .  A
N1098     Co2499   2.070       .  S
Co1099     N2498   2.082       .  S
Co1099     N1802   2.095   1_465  S
Co1099     N1119   2.089       .  S
Co1099    Cl1141   2.474       .  S
C1100      N1138   1.352       .  A
N1101      N1108   1.320       .  A
N1101      N1131   1.327       .  A
N1101     Co2534   2.092       .  S
N1102      N1120   1.321       .  A
N1102      N1138   1.328       .  A
N1102     Co1799   2.095       .  S
N1103      C1132   1.346       .  A
N1103      N1113   1.322       .  A
H1104      C1129   1.082       .  S
N1105      N1126   1.324       .  A
N1105     Co2497   2.084       .  S
N1106      N1124   1.320       .  A
N1106      N1111   1.324       .  A
C1107      N1111   1.349       .  A
C1107      C1135   1.453       .  S
N1108      C1123   1.340       .  A
N1108     Co1830   2.082       .  S
C1109      N1137   1.338       .  A
C1109      C1112   1.457       .  S
C1109      H1143   1.082       .  S
C1112      N1133   1.348       .  A
N1113      N1119   1.321       .  A
N1114      C1140   1.343       .  A
N1114      N1116   1.320       .  A
N1115      C1129   1.339       .  A
N1115     Co2497   2.083       .  S
N1116      N1144   1.322       .  A
N1116     Co1134   2.079       .  S
H1117      C1140   1.082       .  S
H1118      C1135   1.082       .  S
N1120     Co2534   2.078       .  S
N1121      N1133   1.326       .  A
N1121      N1137   1.320       .  A
N1121     Co1130   2.073       .  S
C1122      N1126   1.348       .  A
C1122      C1136   1.454       .  S
C1123      C1142   1.458       .  S
C1123      H1127   1.081       .  S
N1124      C1135   1.338       .  A
N1124     Co1134   2.076       .  S
C1128      N1144   1.346       .  A
C1128      C1140   1.461       .  S
Co1130     N2493   2.084   1_455  S
Co1130     N1808   2.071   1_455  S
Co1130    Cl1141   2.469       .  S
N1131      C1142   1.351       .  A
Co1134     N2501   2.082       .  S
Co1134     N2520   2.078       .  S
C1145      H1152   1.083       .  S
C1145      C1146   1.401       .  A
C1145      C1150   1.406       .  A
C1146      C1147   1.414       .  A
C1147      C1148   1.395       .  A
C1147      C1154   1.516       .  S
C1148      H1153   1.085       .  S
C1148      C1149   1.401       .  A
C1149      C1150   1.422       .  A
C1150      C1151   1.519       .  S
C1151      F1155   1.385       .  S
C1151      F1156   1.384       .  S
C1151      F1157   1.382       .  S
C1154      F1158   1.383       .  S
C1154      F1159   1.382       .  S
C1154      F1160   1.382       .  S
C1161      H1168   1.083       .  S
C1161      C1162   1.396       .  A
C1161      C1166   1.403       .  A
C1162      C1163   1.407       .  A
C1163      C1164   1.404       .  A
C1163      C1170   1.519       .  S
C1164      H1169   1.082       .  S
C1164      C1165   1.412       .  A
C1165      C1166   1.431       .  A
C1166      C1167   1.524       .  S
C1167      F1171   1.386       .  S
C1167      F1172   1.383       .  S
C1167      F1173   1.383       .  S
C1170      F1174   1.382       .  S
C1170      F1175   1.382       .  S
C1170      F1176   1.384       .  S
C1177      H1184   1.082       .  S
C1177      C1178   1.413       .  A
C1177      C1182   1.407       .  A
C1178      C1179   1.429       .  A
C1179      C1180   1.408       .  A
C1179      C1186   1.520       .  S
C1180      H1185   1.084       .  S
C1180      C1181   1.398       .  A
C1181      C1182   1.410       .  A
C1182      C1183   1.519       .  S
C1183      F1187   1.384       .  S
C1183      F1188   1.382       .  S
C1183      F1189   1.383       .  S
C1186      F1190   1.383       .  S
C1186      F1191   1.383       .  S
C1186      F1192   1.385       .  S
C1193      H1200   1.082       .  S
C1193      C1194   1.414       .  A
C1193      C1198   1.406       .  A
C1194      C1195   1.432       .  A
C1195      C1196   1.408       .  A
C1195      C1202   1.524       .  S
C1196      H2601   1.083       .  S
C1196      C1197   1.398       .  A
C1197      C1198   1.408       .  A
C1198      C1199   1.519       .  S
C1199      F1203   1.384       .  S
C1199      F1204   1.383       .  S
C1199      F1205   1.382       .  S
H1201      C2596   1.083   1_455  S
C1202      F1206   1.383       .  S
C1202      F1207   1.384       .  S
C1202      F2608   1.385       .  S
F1208      C2602   1.385       .  S
C1209      H1216   1.083       .  S
C1209      C1210   1.402       .  A
C1209      C1214   1.410       .  A
C1210      C1211   1.413       .  A
C1211      C1212   1.405       .  A
C1211      C1218   1.520       .  S
C1212      H1217   1.082       .  S
C1212      C1213   1.410       .  A
C1213      C1214   1.425       .  A
C1214      C1215   1.519       .  S
C1215      F1219   1.385       .  S
C1215      F1220   1.383       .  S
C1215      F1221   1.384       .  S
C1218      F1222   1.382       .  S
C1218      F1223   1.383       .  S
C1218      F1224   1.384       .  S
C1225      H1232   1.083       .  S
C1225      C1226   1.397       .  A
C1225      C1230   1.407       .  A
C1226      C1227   1.410       .  A
C1227      C1228   1.406       .  A
C1227      C1234   1.522       .  S
C1228      H1233   1.081       .  S
C1228      C1229   1.416       .  A
C1229      C1230   1.432       .  A
C1230      C1231   1.522       .  S
C1231      F2635   1.386       .  S
C1231      F1236   1.383       .  S
C1231      F1237   1.383       .  S
C1234      F1238   1.381       .  S
C1234      F1239   1.382       .  S
C1234      F1240   1.384       .  S
F1235      C2631   1.385   1_455  S
C1241      H1248   1.083       .  S
C1241      C1242   1.401       .  A
C1241      C1246   1.407       .  A
C1242      C1243   1.412       .  A
C1243      C1244   1.402       .  A
C1243      C1250   1.519       .  S
C1244      H1249   1.083       .  S
C1244      C1245   1.407       .  A
C1245      C1246   1.420       .  A
C1246      C1247   1.517       .  S
C1247      F1251   1.385       .  S
C1247      F1252   1.381       .  S
C1247      F1253   1.385       .  S
C1250      F1254   1.382       .  S
C1250      F1255   1.384       .  S
C1250      F1256   1.385       .  S
C1257      H1264   1.083       .  S
C1257      C1258   1.399       .  A
C1257      C1262   1.408       .  A
C1258      C1259   1.412       .  A
C1259      C1260   1.402       .  A
C1259      C1266   1.519       .  S
C1260      H1265   1.083       .  S
C1260      C1261   1.413       .  A
C1261      C1262   1.432       .  A
C1262      C1263   1.522       .  S
C1263      F1267   1.386       .  S
C1263      F1268   1.383       .  S
C1263      F1269   1.383       .  S
C1266      F1270   1.383       .  S
C1266      F1271   1.382       .  S
C1266      F1272   1.384       .  S
C1273      H1280   1.082       .  S
C1273      C1274   1.414       .  A
C1273      C1278   1.407       .  A
C1274      C1275   1.433       .  A
C1275      C1276   1.408       .  A
C1275      C1282   1.523       .  S
C1276      H1281   1.083       .  S
C1276      C1277   1.396       .  A
C1277      C1278   1.410       .  A
C1278      C1279   1.520       .  S
C1279      F1283   1.384       .  S
C1279      F1284   1.383       .  S
C1279      F1285   1.383       .  S
C1282      F1286   1.383       .  S
C1282      F1287   1.383       .  S
C1282      F1288   1.385       .  S
C1289      H1296   1.082       .  S
C1289      C1290   1.410       .  A
C1289      C1294   1.401       .  A
C1290      C1291   1.428       .  A
C1291      C1292   1.404       .  A
C1291      C1298   1.524       .  S
C1292      H1297   1.083       .  S
C1292      C1293   1.398       .  A
C1293      C1294   1.408       .  A
C1294      C1295   1.519       .  S
C1295      F1299   1.385       .  S
C1295      F1300   1.382       .  S
C1295      F1301   1.382       .  S
C1298      F1302   1.384       .  S
C1298      F1303   1.384       .  S
C1298      F1304   1.384       .  S
C1305      H1312   1.084       .  S
C1305      C1306   1.413       .  A
C1305      C1310   1.406       .  A
C1306      C1307   1.430       .  A
C1307      C1308   1.404       .  A
C1307      C1314   1.521       .  S
C1308      H1313   1.084       .  S
C1308      C1309   1.396       .  A
C1309      C1310   1.414       .  A
C1310      C1311   1.521       .  S
C1311      F1315   1.383       .  S
C1311      F1316   1.382       .  S
C1311      F1317   1.383       .  S
C1314      F1318   1.383       .  S
C1314      F1319   1.383       .  S
C1314      F1320   1.386       .  S
C1321      H1328   1.083       .  S
C1321      C1322   1.404       .  A
C1321      C1326   1.408       .  A
C1322      C1323   1.420       .  A
C1323      C1324   1.396       .  A
C1323      C1330   1.519       .  S
C1324      H1329   1.085       .  S
C1324      C1325   1.399       .  A
C1325      C1326   1.418       .  A
C1326      C1327   1.518       .  S
C1327      F1331   1.384       .  S
C1327      F1332   1.384       .  S
C1327      F1333   1.383       .  S
C1330      F1334   1.380       .  S
C1330      F1335   1.384       .  S
C1330      F1336   1.384       .  S
C1337      H1344   1.083       .  S
C1337      C1338   1.406       .  A
C1337      C1342   1.403       .  A
C1338      C1339   1.424       .  A
C1339      C1340   1.408       .  A
C1339      C1346   1.518       .  S
C1340      H1345   1.084       .  S
C1340      C1341   1.400       .  A
C1341      C1342   1.413       .  A
C1342      C2743   1.516       .  S
C1343      C2742   1.521   1_455  S
C1343      F1347   1.384       .  S
C1343      F1348   1.380       .  S
C1343      F1349   1.383       .  S
C1346      F1350   1.381       .  S
C1346      F1351   1.384       .  S
C1346      F1352   1.386       .  S
C1353      H1360   1.082       .  S
C1353      C1354   1.413       .  A
C1353      C1358   1.406       .  A
C1354      C1355   1.427       .  A
C1355      C1356   1.407       .  A
C1355      C1362   1.519       .  S
C1356      H1361   1.083       .  S
C1356      C1357   1.398       .  A
C1357      C1358   1.411       .  A
C1358      C1359   1.519       .  S
C1359      F1363   1.385       .  S
C1359      F1364   1.382       .  S
C1359      F1365   1.383       .  S
C1362      F1366   1.383       .  S
C1362      F1367   1.383       .  S
C1362      F1368   1.385       .  S
C1369      H1376   1.083       .  S
C1369      C1370   1.401       .  A
C1369      C1374   1.409       .  A
C1370      C1371   1.411       .  A
C1371      C1372   1.403       .  A
C1371      C1378   1.520       .  S
C1372      H1377   1.082       .  S
C1372      C1373   1.410       .  A
C1373      C1374   1.425       .  A
C1374      C1375   1.520       .  S
C1375      F1379   1.385       .  S
C1375      F1380   1.382       .  S
C1375      F1381   1.384       .  S
C1378      F1382   1.381       .  S
C1378      F1383   1.383       .  S
C1378      F1384   1.384       .  S
C1385      H1392   1.083       .  S
C1385      C1386   1.401       .  A
C1385      C1390   1.407       .  A
C1386      C1387   1.413       .  A
C1387      C1388   1.403       .  A
C1387      C1394   1.519       .  S
C1388      H1393   1.084       .  S
C1388      C1389   1.411       .  A
C1389      C1390   1.426       .  A
C1390      C1391   1.521       .  S
C1391      F1395   1.385       .  S
C1391      F1396   1.383       .  S
C1391      F1397   1.383       .  S
C1394      F1398   1.381       .  S
C1394      F2799   1.384       .  S
C1394      F1400   1.383       .  S
F1399      C2794   1.384       .  S
C1401      N1402   1.359       .  A
C1401      N1406   1.361       .  A
C1401      C2089   1.495       .  S
N1402      C1403   1.358       .  A
C1403      N1404   1.355       .  A
C1403      C1425   1.463       .  S
N1404      C1405   1.354       .  A
C1405      N1406   1.355       .  A
C1405      C1532   1.462       .  S
C1407      N1408   1.361       .  A
C1407      N1412   1.364       .  A
C1407      C2073   1.495       .  S
N1408      C1409   1.357       .  A
C1409      N1410   1.354       .  A
C1409      C1502   1.463       .  S
N1410      C1411   1.355       .  A
C1411      N1412   1.358       .  A
C1411      C1455   1.465       .  S
C1413      N1414   1.357       .  A
C1413      N1418   1.363       .  A
C1413      C2054   1.495       .  S
N1414      C1415   1.355       .  A
C1415      N1416   1.358       .  A
C1415      C1542   1.466       .  S
N1416      C1417   1.359       .  A
C1417      N1418   1.358       .  A
C1417      C1475   1.469       .  S
C1419      N1420   1.359       .  A
C1419      N1424   1.357       .  A
C1419      C2038   1.494       .  S
N1420      C1421   1.361       .  A
C1421      N1422   1.360       .  A
C1421      C1552   1.470       .  S
N1422      C1423   1.359       .  A
C1423      N1424   1.355       .  A
C1423      C1465   1.465       .  S
C1425      C1462   1.457       .  S
N1426      N1443   1.324       .  A
N1426     Co1463   2.079       .  S
C1427      N2152   1.340       .  A
C1427      H1472   1.082       .  S
H1428      C1469   1.082       .  S
C1429      N1453   1.337       .  A
C1429      C1433   1.456       .  S
C1429      H1458   1.082       .  S
Co1430     N1448   2.087       .  S
Co1430     N1438   2.083       .  S
Co1430     N1470   2.079       .  S
Co1430     N1446   2.088       .  S
N1431      C1469   1.344       .  A
N1431     Co1432   2.089       .  S
Co1432     N1435   2.078       .  S
Co1432     N1452   2.075       .  S
Co1432     N1439   2.096       .  S
Co1432    Cl1474   2.477       .  S
C1433      N1471   1.349       .  A
C1433      C1480   1.464       .  S
N1434      N1441   1.320       .  A
N1434      N1464   1.324       .  A
N1434     Co1467   2.084       .  S
N1435      N1453   1.320       .  A
N1435      N1471   1.326       .  A
N1436      C1465   1.349       .  A
N1436      N2146   1.326       .  A
H1437      C1462   1.082       .  S
N1438      N1459   1.322       .  A
N1439      N1457   1.320       .  A
N1439      N2144   1.329       .  A
C1440      N1444   1.351       .  A
C1440      C1468   1.457       .  S
C1440      C1498   1.467       .  S
N1441      C1456   1.345       .  A
N1441     Co1463   2.092       .  S
C1442      N2170   1.335       .  A
C1442      C1445   1.452       .  S
C1442      H1476   1.082       .  S
N1444      N2139   1.328       .  A
C1445      C1488   1.459       .  S
N1446      N2136   1.326       .  A
N1447      C2173   1.341       .  A
N1447      N1449   1.321       .  A
N1447     Co1463   2.082       .  S
N1448      C1462   1.340       .  A
N1449      N2177   1.324       .  A
N1449     Co1467   2.085       .  S
H1450      C1473   1.082       .  S
H1451      C1468   1.082       .  S
N1452      C2127   1.338       .  A
N1453     Co1467   2.082       .  S
N1454      N2166   1.327       .  A
N1454     Co1463   2.088       .  S
C1455      N1459   1.346       .  A
C1456      C1475   1.464       .  S
C1456      H1460   1.082       .  S
N1457      C2168   1.338       .  A
N1457     Co1467   2.081       .  S
C1461      N1477   1.346       .  A
C1461      C1473   1.459       .  S
C1461      C1492   1.460       .  S
Co1463    Cl1474   2.477       .  S
N1464      C1475   1.347       .  A
N1466      N2154   1.329       .  A
Co1467    Cl1474   2.425       .  S
C1468      N2157   1.339       .  A
N1470      C2142   1.337       .  A
C1473      N2147   1.341       .  A
N1477      N2149   1.323       .  A
C1478      N1479   1.362       .  A
C1478      N1483   1.362       .  A
C1478      C2025   1.494       .  S
N1479      C1480   1.360       .  A
C1480      N1481   1.354       .  A
N1481      C1482   1.353       .  A
C1482      N1483   1.355       .  A
C1482      C1522   1.463       .  S
C1484      N1485   1.356       .  A
C1484      N1489   1.365       .  A
C1484      C2006   1.501       .  S
N1485      C1486   1.352       .  A
C1486      N1487   1.351       .  A
C1486      C1510   1.457       .  S
N1487      C1488   1.353       .  A
C1488      N1489   1.359       .  A
C1490      N1491   1.360       .  A
C1490      N1495   1.357       .  A
C1490      C1990   1.496       .  S
N1491      C1492   1.353       .  A
C1492      N1493   1.355       .  A
N1493      C1494   1.356       .  A
C1494      N1495   1.357       .  A
C1494      C1517   1.462       .  S
C1496      N1497   1.362       .  A
C1496      N1501   1.364       .  A
C1496      C1974   1.509       .  S
N1497      C1498   1.359       .  A
C1498      N1499   1.353       .  A
N1499      C1500   1.354       .  A
C1500      N1501   1.358       .  A
C1500      C1538   1.459       .  S
C1502      N1520   1.349       .  A
C1502      C1539   1.456       .  S
N1503      N1520   1.325       .  A
N1503      N1525   1.320       .  A
N1503     Co1540   2.085       .  S
C1504      N1529   1.343       .  A
C1504      C1542   1.462       .  S
C1504      H1549   1.082       .  S
H1505      C1546   1.082       .  S
C1506      N1530   1.336       .  A
C1506      C1510   1.452       .  S
C1506      H1535   1.082       .  S
Co1507     N1525   2.083       .  S
Co1507     N1515   2.086       .  S
Co1507     N1547   2.082       .  S
Co1507     N1523   2.084       .  S
Co1507    Cl1551   2.430       .  S
N1508      C1546   1.341       .  A
N1508      N1515   1.320       .  A
N1508     Co1509   2.079       .  S
Co1509     N1512   2.087       .  S
Co1509     N1529   2.090       .  S
Co1509     N1516   2.078       .  S
Co1509    Cl1551   2.471       .  S
C1510      N1548   1.350       .  A
N1511      N1518   1.320       .  A
N1511      N1541   1.327       .  A
N1511     Co1544   2.097       .  S
N1512      N1530   1.320       .  A
N1512      N1548   1.326       .  A
N1513      C1542   1.348       .  A
N1513      N1523   1.324       .  A
H1514      C1539   1.082       .  S
N1515      N1536   1.324       .  A
N1516      N1534   1.321       .  A
N1516      N1521   1.324       .  A
C1517      N1521   1.349       .  A
C1517      C1545   1.456       .  S
N1518      C1533   1.339       .  A
N1518     Co1540   2.078       .  S
C1519      N1547   1.339       .  A
C1519      C1522   1.455       .  S
C1519      H1553   1.082       .  S
C1522      N1543   1.349       .  A
N1523      N1529   1.319       .  A
N1524      C1550   1.344       .  A
N1524      N1526   1.319       .  A
N1524     Co1540   2.083       .  S
N1525      C1539   1.339       .  A
N1526      N1554   1.320       .  A
N1526     Co1544   2.073       .  S
H1527      C1550   1.082       .  S
H1528      C1545   1.082       .  S
N1530     Co1544   2.071       .  S
N1531      N1543   1.325       .  A
N1531      N1547   1.321       .  A
N1531     Co1540   2.081       .  S
C1532      N1536   1.348       .  A
C1532      C1546   1.457       .  S
C1533      C1552   1.457       .  S
C1533      H1537   1.081       .  S
N1534      C1545   1.340       .  A
N1534     Co1544   2.087       .  S
C1538      N1554   1.345       .  A
C1538      C1550   1.461       .  S
Co1540    Cl1551   2.471       .  S
N1541      C1552   1.351       .  A
Co1544    Cl1551   2.427       .  S
N1555      C1560   1.350       .  A
N1555      C1559   1.349       .  A
N1555      H1587   1.035       .  S
N1556      C2263   1.351       .  A
N1556      C2264   1.351       .  A
N1557      C1562   1.352       .  A
N1557      C1561   1.354       .  A
N1557      H1588   1.035       .  S
N1558      C1565   1.350       .  A
N1558      C1566   1.348       .  A
C1559      C1567   1.387       .  A
C1559      C1575   1.411       .  A
C1560      C1576   1.412       .  A
C1560      C1568   1.389       .  A
C1561      C1569   1.388       .  A
C1561      C1578   1.418       .  A
C1562      C1577   1.416       .  A
C1562      C1570   1.387       .  A
C1563      N2256   1.350       .  A
C1563      C2275   1.408       .  A
C1563      C1571   1.384       .  A
C1564      N2256   1.348       .  A
C1564      C2278   1.411       .  A
C1564      C1572   1.388       .  A
C1565      C1573   1.385       .  A
C1565      C1576   1.408       .  A
C1566      C1574   1.387       .  A
C1566      C1577   1.410       .  A
C1567      H1579   1.083       .  S
C1567      C1568   1.374       .  A
C1568      H1580   1.082       .  S
C1569      H1581   1.082       .  S
C1569      C1570   1.377       .  A
C1570      H1582   1.082       .  S
C1571      H1583   1.082       .  S
C1571      C1572   1.376       .  A
C1572      H1584   1.082       .  S
C1573      H1585   1.082       .  S
C1573      C1574   1.372       .  A
C1574      H1586   1.082       .  S
C1575      C2642   1.485       .  S
C1575      C2263   1.412       .  A
C1576      C1958   1.478       .  S
C1577      C2057   1.482       .  S
C1578      C2709   1.490       .  S
C1578      C2264   1.414       .  A
N1589      C1594   1.351       .  A
N1589      C1593   1.351       .  A
N1589      H1621   1.039       .  S
N1590      C1597   1.351   1_556  A
N1590      C1598   1.349       .  A
N1591      C1596   1.354       .  A
N1591      C1595   1.355       .  A
N1591      H1622   1.035       .  S
N1592      C1599   1.352   1_556  A
N1592      C1600   1.351       .  A
C1593      C1601   1.386       .  A
C1594      C1610   1.410       .  A
C1594      C1602   1.387       .  A
C1595      C1603   1.388       .  A
C1596      C1611   1.421       .  A
C1596      C1604   1.388       .  A
C1597      C1609   1.410       .  A
C1597      C1605   1.385       .  A
C1598      C1612   1.414       .  A
C1598      C1606   1.388       .  A
C1599      C1607   1.384       .  A
C1599      C1610   1.412       .  A
C1600      C1608   1.388       .  A
C1600      C1611   1.417       .  A
C1601      H1613   1.082       .  S
C1601      C1602   1.370       .  A
C1602      H1614   1.082       .  S
C1603      H1615   1.082       .  S
C1603      C1604   1.377       .  A
C1604      H1616   1.082       .  S
C1605      H1617   1.082       .  S
C1605      C1606   1.374   1_554  A
C1606      H1618   1.082       .  S
C1607      H1619   1.082       .  S
C1607      C1608   1.378   1_554  A
C1608      H1620   1.082       .  S
C1609      C2041   1.488       .  S
C1610      C2022   1.488       .  S
C1611      C1910   1.493       .  S
C1612      C1926   1.485       .  S
N1623      C1628   1.352       .  A
N1623      C1627   1.351       .  A
N1623      H1655   1.031       .  S
N1624      C1631   1.349       .  A
N1624      C1632   1.349       .  A
N1625      C1630   1.352       .  A
N1625      C1629   1.353       .  A
N1625      H1656   1.033       .  S
C1627      C1635   1.387       .  A
C1627      C1643   1.413       .  A
C1628      C1636   1.386       .  A
C1629      C1637   1.386       .  A
C1629      C1646   1.414       .  A
C1630      C1638   1.388       .  A
C1631      C1643   1.409       .  A
C1631      C1639   1.385       .  A
C1632      C1646   1.411       .  A
C1632      C1640   1.386       .  A
C1633      C1641   1.385       .  A
C1633      C1644   1.409       .  A
C1634      C1642   1.388       .  A
C1634      C1645   1.413       .  A
C1635      H1647   1.082       .  S
C1635      C1636   1.371       .  A
C1636      H1648   1.082       .  S
C1637      H1649   1.082       .  S
C1637      C1638   1.377       .  A
C1638      H1650   1.082       .  S
C1639      H1651   1.082       .  S
C1639      C1640   1.374       .  A
C1640      H1652   1.082       .  S
C1641      H1653   1.082       .  S
C1641      C1642   1.376       .  A
C1642      H1654   1.082       .  S
C1643      C1993   1.481       .  S
C1644      C2086   1.483       .  S
C1645      C1897   1.487       .  S
C1646      C1881   1.487       .  S
N1657      C1662   1.351       .  A
N1657      C1661   1.352       .  A
N1657      H1689   1.032       .  S
N1658      C1665   1.352   1_554  A
N1658      C1666   1.350       .  A
N1659      C1664   1.356       .  A
N1659      C1663   1.354       .  A
N1659      H1690   1.037       .  S
N1660      C2367   1.350   1_554  A
N1660      C2368   1.350       .  A
C1661      C1669   1.387       .  A
C1661      C1677   1.415       .  A
C1662      C2378   1.417       .  A
C1662      C1670   1.389       .  A
C1663      C1671   1.387       .  A
C1663      C1680   1.419       .  A
C1664      C2379   1.420       .  A
C1664      C1672   1.387       .  A
C1665      C1677   1.413       .  A
C1665      C1673   1.385       .  A
C1666      C1680   1.414       .  A
C1666      C1674   1.387       .  A
C1667      N2360   1.351   1_556  A
C1667      C1675   1.385       .  A
C1667      C1678   1.410       .  A
C1668      N2360   1.351       .  A
C1668      C1676   1.387       .  A
C1668      C1679   1.414       .  A
C1669      H1681   1.082       .  S
C1669      C1670   1.368       .  A
C1670      H1682   1.081       .  S
C1671      H1683   1.082       .  S
C1671      C1672   1.378       .  A
C1672      H1684   1.082       .  S
C1673      H1685   1.082       .  S
C1673      C1674   1.374   1_556  A
C1674      H1686   1.082       .  S
C1675      H1687   1.082       .  S
C1675      C1676   1.375   1_556  A
C1676      H1688   1.082       .  S
C1677      C1862   1.486       .  S
C1678      C1846   1.487       .  S
C1678      C2362   1.411   1_545  A
C1679      C1977   1.494       .  S
C1679      C2364   1.422   1_545  A
C1680      C2070   1.489       .  S
C1691      N1692   1.363       .  A
C1691      N1696   1.356       .  A
C1691      C1865   1.502       .  S
N1692      C1693   1.356       .  A
C1693      N1694   1.355       .  A
C1693      C1727   1.465       .  S
N1694      C1695   1.355       .  A
C1695      N1696   1.357       .  A
C1695      C1822   1.459       .  S
C1697      N1698   1.358       .  A
C1697      N1702   1.365       .  A
C1697      C1929   1.503       .  S
N1698      C1699   1.355       .  A
C1699      N1700   1.354       .  A
C1699      C1800   1.461       .  S
N1700      C1701   1.353       .  A
C1701      N1702   1.358       .  A
C1701      C1747   1.462       .  S
C1703      N1704   1.361       .  A
C1703      N1708   1.356       .  A
C1703      C1849   1.487       .  S
N1704      C1705   1.359       .  A
C1705      N1706   1.359       .  A
C1705      C1807   1.467       .  S
N1706      C1707   1.358       .  A
C1707      N1708   1.355       .  A
C1707      C1763   1.467       .  S
C1709      N1710   1.360       .  A
C1709      N1714   1.360       .  A
C1709      C1913   1.495       .  S
N1710      C1711   1.357       .  A
C1711      N1712   1.357       .  A
C1711      C1777   1.461       .  S
N1712      C1713   1.357       .  A
C1713      N1714   1.357       .  A
C1713      C1832   1.466       .  S
C1715      N1716   1.366       .  A
C1715      N1720   1.357       .  A
C1715      C1878   1.498       .  S
N1716      C1717   1.360       .  A
C1717      N1718   1.356       .  A
C1717      C1742   1.468       .  S
N1718      C1719   1.354       .  A
C1719      N1720   1.354       .  A
C1719      C1828   1.457       .  S
C1721      N1722   1.355       .  A
C1721      N1726   1.356       .  A
C1721      C1945   1.484       .  S
N1722      C1723   1.353       .  A
C1723      N1724   1.358       .  A
C1723      C1767   1.459       .  S
N1724      C1725   1.358       .  A
C1725      N1726   1.358       .  A
C1725      C1842   1.463       .  S
C1727      N1745   1.350       .  A
C1727      C1764   1.455       .  S
N1728      N1745   1.326       .  A
N1728      N1750   1.320       .  A
N1728     Co1765   2.086       .  S
C1729      N1754   1.338       .  A
C1729      C1767   1.457       .  S
C1729      H1774   1.082       .  S
H1730      C1771   1.082       .  S
C1731      N1755   1.335       .  A
C1731      C1735   1.449       .  S
C1731      H1760   1.081       .  S
Co1732     N1750   2.078       .  S
Co1732     N1740   2.078       .  S
Co1732     N1772   2.080       .  S
Co1732     N1748   2.079       .  S
Co1732    Cl1776   2.429       .  S
N1733      C1771   1.343       .  A
N1733      N1740   1.320       .  A
N1733     Co1734   2.088       .  S
Co1734     N1737   2.083       .  S
Co1734     N1754   2.080       .  S
Co1734     N1741   2.099       .  S
Co1734    Cl1776   2.473       .  S
C1735      N1773   1.351       .  A
C1735      C1790   1.457       .  S
N1736      N1743   1.319       .  A
N1736      N1766   1.323       .  A
N1736     Co1769   2.079       .  S
N1737      N1755   1.320       .  A
N1737      N1773   1.325       .  A
N1738      C1767   1.346       .  A
N1738      N1748   1.324       .  A
H1739      C1764   1.082       .  S
N1740      N1761   1.322       .  A
N1741      N1759   1.321       .  A
N1741      N1746   1.329       .  A
C1742      N1746   1.353       .  A
C1742      C1770   1.453       .  S
N1743      C1758   1.342       .  A
N1743     Co1765   2.084       .  S
C1744      N1772   1.337       .  A
C1744      C1747   1.454       .  S
C1744      H1778   1.082       .  S
C1747      N1768   1.350       .  A
N1748      N1754   1.321       .  A
N1749      C1775   1.340       .  A
N1749      N1751   1.320       .  A
N1749     Co1765   2.086       .  S
N1750      C1764   1.339       .  A
N1751      N1779   1.325       .  A
N1751     Co1769   2.082       .  S
H1752      C1775   1.081       .  S
H1753      C1770   1.082       .  S
N1755     Co1769   2.069       .  S
N1756      N1768   1.327       .  A
N1756      N1772   1.320       .  A
N1756     Co1765   2.087       .  S
C1757      N1761   1.346       .  A
C1757      C1771   1.460       .  S
C1757      C1782   1.460       .  S
C1758      C1777   1.461       .  S
C1758      H1762   1.081       .  S
N1759      C1770   1.337       .  A
N1759     Co1769   2.079       .  S
C1763      N1779   1.349       .  A
C1763      C1775   1.459       .  S
Co1765    Cl1776   2.469       .  S
N1766      C1777   1.347       .  A
Co1769    Cl1776   2.428       .  S
C1780      N1781   1.362       .  A
C1780      N1785   1.359       .  A
C1780      C1894   1.502       .  S
N1781      C1782   1.355       .  A
C1782      N1783   1.354       .  A
N1783      C1784   1.355       .  A
C1784      N1785   1.357       .  A
C1784      C1792   1.462       .  S
C1786      N1787   1.360       .  A
C1786      N1791   1.359       .  A
C1786      C1961   1.494       .  S
N1787      C1788   1.358       .  A
C1788      N1789   1.355       .  A
C1788      C1812   1.463       .  S
N1789      C1790   1.353       .  A
C1790      N1791   1.350       .  A
C1792      N1810   1.351       .  A
C1792      C1829   1.453       .  S
N1793      N1810   1.327   1_455  A
N1793      N1815   1.320       .  A
C1794      N1819   1.345       .  A
C1794      C1832   1.465       .  S
C1794      H1839   1.082       .  S
H1795      C1836   1.081       .  S
C1796      N1820   1.335       .  A
C1796      C1800   1.451       .  S
C1796      H1825   1.082       .  S
Co1797     N1837   2.078       .  S
Co1797     N1813   2.076       .  S
Co1797    Cl1841   2.426       .  S
N1798      C1836   1.337   1_455  A
N1798      N1805   1.320       .  A
Co1799     N1819   2.098       .  S
Co1799     N2506   2.074       .  S
Co1799    Cl1841   2.474       .  S
C1800      N1838   1.353       .  A
N1801      N1808   1.319   1_545  A
N1801      N1831   1.326       .  A
N1802      N1820   1.320       .  A
N1802      N1838   1.328       .  A
N1803      C1832   1.346       .  A
N1803      N1813   1.323       .  A
H1804      C1829   1.082       .  S
N1805      N1826   1.324   1_455  A
N1806      N1824   1.320       .  A
N1806      N1811   1.326       .  A
N1806     Co2499   2.082   1_545  S
C1807      N1811   1.350       .  A
C1807      C1835   1.456       .  S
N1808      C1823   1.337   1_565  A
C1809      N1837   1.337       .  A
C1809      C1812   1.453       .  S
C1809      H1843   1.082       .  S
C1812      N1833   1.350       .  A
N1813      N1819   1.320       .  A
N1814      C1840   1.341       .  A
N1814      N1816   1.320       .  A
N1814     Co2530   2.080   1_545  S
N1815      C1829   1.337   1_455  A
N1816      N1844   1.322       .  A
N1816     Co1834   2.079       .  S
H1817      C1840   1.082   1_565  S
H1818      C1835   1.082       .  S
N1821      N1833   1.327       .  A
N1821      N1837   1.320       .  A
N1821     Co1830   2.085       .  S
C1822      N1826   1.349       .  A
C1822      C1836   1.453       .  S
C1823      C1842   1.455       .  S
C1823      H1827   1.081   1_545  S
N1824      C1835   1.340       .  A
N1824     Co1834   2.087       .  S
C1828      N1844   1.347       .  A
C1828      C1840   1.458       .  S
Co1830     N2514   2.078       .  S
Co1830    Cl1841   2.473       .  S
N1831      C1842   1.350       .  A
Co1834    Cl2541   2.427   1_545  S
Cl1841    Co2534   2.426       .  S
C1845      H1852   1.083       .  S
C1845      C1846   1.401       .  A
C1845      C1850   1.408       .  A
C1846      C1847   1.416       .  A
C1847      C1848   1.402       .  A
C1847      C1854   1.518   1_545  S
C1848      H1853   1.084   1_545  S
C1848      C1849   1.404       .  A
C1849      C1850   1.424       .  A
C1850      C1851   1.519       .  S
C1851      F1855   1.384       .  S
C1851      F1856   1.384       .  S
C1851      F1857   1.381       .  S
C1854      F1858   1.383       .  S
C1854      F1859   1.383       .  S
C1854      F1860   1.382       .  S
C1861      H1868   1.083       .  S
C1861      C1862   1.399       .  A
C1861      C1866   1.409       .  A
C1862      C1863   1.409       .  A
C1863      C1864   1.402       .  A
C1863      C1870   1.519       .  S
C1864      H1869   1.081       .  S
C1864      C1865   1.412       .  A
C1865      C1866   1.433       .  A
C1866      C1867   1.523       .  S
C1867      F1871   1.386       .  S
C1867      F1872   1.383       .  S
C1867      F1873   1.383       .  S
C1870      F1874   1.382       .  S
C1870      F1875   1.382       .  S
C1870      F1876   1.385       .  S
C1877      H1884   1.082       .  S
C1877      C1878   1.409       .  A
C1877      C1882   1.405       .  A
C1878      C1879   1.429       .  A
C1879      C1880   1.408       .  A
C1879      C1886   1.519       .  S
C1880      H1885   1.084       .  S
C1880      C1881   1.398       .  A
C1881      C1882   1.412       .  A
C1882      C1883   1.519       .  S
C1883      F1887   1.385       .  S
C1883      F1888   1.382       .  S
C1883      F1889   1.383       .  S
C1886      F1890   1.383       .  S
C1886      F1891   1.382       .  S
C1886      F1892   1.385       .  S
C1893      H1900   1.082       .  S
C1893      C1894   1.414       .  A
C1893      C1898   1.405       .  A
C1894      C1895   1.430       .  A
C1895      C1896   1.407       .  A
C1895      C1902   1.522       .  S
C1896      C1897   1.399       .  A
C1897      C1898   1.411       .  A
C1898      C1899   1.521       .  S
C1899      F1903   1.385       .  S
C1899      F1904   1.381       .  S
C1899      F1905   1.382       .  S
C1902      F1906   1.383   1_655  S
C1902      F1907   1.384       .  S
C1909      H1916   1.083       .  S
C1909      C1910   1.402       .  A
C1909      C1914   1.409       .  A
C1910      C1911   1.415       .  A
C1911      C1912   1.407       .  A
C1911      C1918   1.520       .  S
C1912      H1917   1.082       .  S
C1912      C1913   1.410       .  A
C1913      C1914   1.422       .  A
C1914      C1915   1.517       .  S
C1915      F1919   1.384       .  S
C1915      F1920   1.383       .  S
C1915      F1921   1.383       .  S
C1918      F1922   1.381       .  S
C1918      F1923   1.383       .  S
C1918      F1924   1.384       .  S
C1925      H1932   1.083   1_655  S
C1925      C1926   1.397       .  A
C1925      C1930   1.407       .  A
C1926      C1927   1.409       .  A
C1927      C1928   1.405       .  A
C1927      C1934   1.521       .  S
C1928      H1933   1.081       .  S
C1928      C1929   1.414       .  A
C1929      C1930   1.433       .  A
C1930      C1931   1.524       .  S
C1931      F1936   1.383   1_655  S
C1931      F1937   1.384       .  S
C1934      F1938   1.382       .  S
C1934      F1939   1.383       .  S
C1934      F1940   1.384       .  S
C1941      H1948   1.083       .  S
C1941      C1942   1.402       .  A
C1941      C1946   1.409       .  A
C1942      C2275   1.483       .  S
C1942      C1943   1.413       .  A
C1943      C1944   1.399       .  A
C1943      C1950   1.520       .  S
C1944      H1949   1.083       .  S
C1944      C1945   1.405       .  A
C1945      C1946   1.422       .  A
C1946      C1947   1.519       .  S
C1947      F1951   1.384       .  S
C1947      F1952   1.382       .  S
C1947      F1953   1.384       .  S
C1950      F1954   1.381       .  S
C1950      F1955   1.383       .  S
C1950      F1956   1.385       .  S
C1957      H1964   1.083       .  S
C1957      C1958   1.400       .  A
C1957      C1962   1.405       .  A
C1958      C1959   1.410       .  A
C1959      C1960   1.396       .  A
C1959      C1966   1.518       .  S
C1960      H1965   1.083       .  S
C1960      C1961   1.413       .  A
C1961      C1962   1.427       .  A
C1962      C1963   1.521       .  S
C1963      F1967   1.385       .  S
C1963      F1968   1.383       .  S
C1963      F1969   1.384       .  S
C1966      F1970   1.384       .  S
C1966      F1971   1.381       .  S
C1966      F1972   1.384       .  S
C1973      H1980   1.082       .  S
C1973      C1974   1.416       .  A
C1973      C1978   1.410       .  A
C1974      C1975   1.432       .  A
C1975      C1976   1.408       .  A
C1975      C1982   1.522   1_545  S
C1976      H1981   1.083   1_545  S
C1976      C1977   1.397       .  A
C1977      C1978   1.412       .  A
C1978      C1979   1.519       .  S
C1979      F1983   1.385       .  S
C1979      F1984   1.382       .  S
C1979      F1985   1.383       .  S
C1982      F1986   1.383   1_565  S
C1982      F1987   1.383       .  S
C1982      F1988   1.385       .  S
C1989      H1996   1.081       .  S
C1989      C1990   1.413       .  A
C1989      C1994   1.401       .  A
C1990      C1991   1.429       .  A
C1991      C1992   1.407       .  A
C1991      C1998   1.522       .  S
C1992      H1997   1.083       .  S
C1992      C1993   1.399       .  A
C1993      C1994   1.408       .  A
C1994      C1995   1.520       .  S
C1995      F1999   1.385       .  S
C1995      F2000   1.382       .  S
C1995      F2001   1.382       .  S
C1998      F2002   1.383       .  S
C1998      F2003   1.383       .  S
C1998      F2004   1.384       .  S
C2005      H2012   1.084       .  S
C2005      C2006   1.411       .  A
C2005      C2010   1.404       .  A
C2006      C2007   1.431       .  A
C2007      C2008   1.408       .  A
C2007      C2014   1.524       .  S
C2008      H2013   1.083       .  S
C2008      C2009   1.399       .  A
C2009      C2278   1.486       .  S
C2009      C2010   1.414       .  A
C2010      C2011   1.519   1_545  S
C2011      F2015   1.383       .  S
C2011      F2016   1.381       .  S
C2011      F2017   1.383       .  S
C2014      F2018   1.383       .  S
C2014      F2019   1.384       .  S
C2014      F2020   1.385       .  S
C2021      H2028   1.083       .  S
C2021      C2022   1.402       .  A
C2021      C2026   1.412       .  A
C2022      C2023   1.417       .  A
C2023      C2024   1.401       .  A
C2023      C2030   1.520       .  S
C2024      H2029   1.084       .  S
C2024      C2025   1.407       .  A
C2025      C2026   1.426       .  A
C2026      C2027   1.519       .  S
C2027      F2031   1.385       .  S
C2027      F2032   1.383       .  S
C2027      F2033   1.383       .  S
C2030      F2034   1.382       .  S
C2030      F2035   1.383       .  S
C2030      F2036   1.384       .  S
C2037      H2044   1.082       .  S
C2037      C2038   1.409       .  A
C2037      C2042   1.403       .  A
C2038      C2039   1.424       .  A
C2039      C2040   1.409       .  A
C2039      C2046   1.518       .  S
C2040      H2045   1.084       .  S
C2040      C2041   1.401       .  A
C2041      C2042   1.412       .  A
C2043      F2047   1.385       .  S
C2043      F2048   1.382       .  S
C2043      F2049   1.383       .  S
C2046      F2050   1.382       .  S
C2046      F2051   1.384       .  S
C2046      F2052   1.385       .  S
C2053      H2060   1.082       .  S
C2053      C2054   1.411       .  A
C2053      C2058   1.404       .  A
C2054      C2055   1.427       .  A
C2055      C2056   1.405       .  A
C2055      C2062   1.520       .  S
C2056      H2061   1.084       .  S
C2056      C2057   1.398       .  A
C2057      C2058   1.410       .  A
C2058      C2059   1.519       .  S
C2059      F2063   1.384       .  S
C2059      F2064   1.382       .  S
C2059      F2065   1.383       .  S
C2062      F2066   1.382       .  S
C2062      F2067   1.383       .  S
C2062      F2068   1.386       .  S
C2069      H2076   1.084       .  S
C2069      C2070   1.401       .  A
C2069      C2074   1.409       .  A
C2070      C2071   1.413       .  A
C2071      C2072   1.405       .  A
C2071      C2078   1.519       .  S
C2072      H2077   1.082       .  S
C2072      C2073   1.409       .  A
C2073      C2074   1.424       .  A
C2074      C2075   1.518       .  S
C2075      F2079   1.385       .  S
C2075      F2080   1.383       .  S
C2075      F2081   1.384       .  S
C2078      F2082   1.381       .  S
C2078      F2083   1.383       .  S
C2078      F2084   1.384       .  S
C2085      H2092   1.083   1_655  S
C2085      C2086   1.401       .  A
C2085      C2090   1.408       .  A
C2086      C2087   1.413       .  A
C2087      C2088   1.401       .  A
C2087      C2094   1.519       .  S
C2088      H2093   1.084       .  S
C2088      C2089   1.410       .  A
C2089      C2090   1.427       .  A
C2090      C2091   1.522   1_655  S
C2091      F2095   1.385       .  S
C2091      F2096   1.383       .  S
C2091      F2097   1.383       .  S
C2094      F2098   1.380       .  S
C2094      F2100   1.384       .  S
C2101      N2102   1.357       .  A
C2101      N2106   1.362       .  A
C2101      C2789   1.496       .  S
N2102      C2103   1.357       .  A
C2103      N2104   1.354       .  A
C2103      C2125   1.460       .  S
N2104      C2105   1.354       .  A
C2105      N2106   1.357       .  A
C2105      C2232   1.463       .  S
C2107      N2108   1.356       .  A
C2107      N2112   1.363       .  A
C2107      C2773   1.499       .  S
N2108      C2109   1.354       .  A
C2109      N2110   1.354       .  A
C2109      C2202   1.459       .  S
N2110      C2111   1.356       .  A
C2111      N2112   1.357       .  A
C2111      C2155   1.460       .  S
C2113      N2114   1.362       .  A
C2113      N2118   1.360       .  A
C2113      C2754   1.487       .  S
N2114      C2115   1.360       .  A
C2115      N2116   1.359       .  A
C2115      C2242   1.468       .  S
N2116      C2117   1.357       .  A
C2117      N2118   1.355       .  A
C2117      C2175   1.465       .  S
C2119      N2120   1.357       .  A
C2119      N2124   1.358       .  A
C2119      C2738   1.494       .  S
N2120      C2121   1.358       .  A
C2121      N2122   1.358       .  A
C2121      C2252   1.465       .  S
N2122      C2123   1.358       .  A
C2123      N2124   1.356       .  A
C2123      C2165   1.462       .  S
C2125      C2162   1.458       .  S
N2126      N2143   1.326       .  A
N2126     Co2163   2.085       .  S
C2127      H2172   1.082       .  S
H2128      C2169   1.082       .  S
C2129      N2153   1.337       .  A
C2129      C2133   1.454       .  S
C2129      H2158   1.082       .  S
Co2130     N2148   2.086       .  S
Co2130     N2138   2.072       .  S
Co2130     N2170   2.072   1_565  S
Co2130     N2146   2.089   1_565  S
N2131      C2169   1.343       .  A
N2131     Co2132   2.086       .  S
Co2132     N2135   2.088       .  S
Co2132     N2152   2.087   1_565  S
Co2132     N2139   2.091   1_565  S
Co2132    Cl2174   2.477       .  S
C2133      N2171   1.351       .  A
C2133      C2180   1.465       .  S
N2134      N2141   1.321       .  A
N2134      N2164   1.324       .  A
N2134     Co2167   2.087       .  S
N2135      N2153   1.320       .  A
N2135      N2171   1.327       .  A
N2136      C2165   1.349       .  A
H2137      C2162   1.082       .  S
N2138      N2159   1.321       .  A
N2139      N2157   1.321       .  A
C2140      N2144   1.353       .  A
C2140      C2168   1.455       .  S
C2140      C2198   1.469       .  S
N2141      C2156   1.343       .  A
N2141     Co2163   2.090       .  S
C2142      C2145   1.455       .  S
C2142      H2176   1.082       .  S
C2145      C2188   1.459       .  S
N2147      N2149   1.321       .  A
N2147     Co2163   2.082   1_545  S
N2148      C2162   1.341       .  A
N2149     Co2167   2.077   1_545  S
H2150      C2173   1.082       .  S
H2151      C2168   1.082       .  S
N2153     Co2167   2.077       .  S
N2154     Co2163   2.094   1_545  S
C2155      N2159   1.345       .  A
C2156      C2175   1.461       .  S
C2156      H2160   1.082       .  S
N2157     Co2167   2.087   1_545  S
C2161      N2177   1.347       .  A
C2161      C2173   1.459       .  S
C2161      C2192   1.463       .  S
Co2163    Cl2174   2.477       .  S
N2164      C2175   1.348       .  A
Co2167    Cl2174   2.428       .  S
C2178      N2179   1.362       .  A
C2178      N2183   1.361       .  A
C2178      C2725   1.490       .  S
N2179      C2180   1.359       .  A
C2180      N2181   1.354       .  A
N2181      C2182   1.353       .  A
C2182      N2183   1.354       .  A
C2182      C2222   1.460       .  S
C2184      N2185   1.359       .  A
C2184      N2189   1.364       .  A
C2184      C2706   1.506       .  S
N2185      C2186   1.357       .  A
C2186      N2187   1.352       .  A
C2186      C2210   1.457       .  S
N2187      C2188   1.351       .  A
C2188      N2189   1.357       .  A
C2190      N2191   1.359       .  A
C2190      N2195   1.355       .  A
C2190      C2690   1.489       .  S
N2191      C2192   1.355       .  A
C2192      N2193   1.358       .  A
N2193      C2194   1.358       .  A
C2194      N2195   1.355       .  A
C2194      C2217   1.463       .  S
C2196      N2197   1.363       .  A
C2196      N2201   1.361       .  A
C2196      C2674   1.490       .  S
N2197      C2198   1.361       .  A
C2198      N2199   1.357       .  A
N2199      C2200   1.356       .  A
C2200      N2201   1.355       .  A
C2200      C2238   1.465       .  S
C2202      N2220   1.350       .  A
C2202      C2239   1.456       .  S
N2203      N2220   1.324       .  A
N2203      N2225   1.319       .  A
N2203     Co2240   2.084       .  S
C2204      N2229   1.345       .  A
C2204      C2242   1.463       .  S
C2204      H2249   1.082       .  S
H2205      C2246   1.082       .  S
C2206      N2230   1.334       .  A
C2206      C2210   1.452       .  S
C2206      H2235   1.082       .  S
Co2207     N2225   2.079       .  S
Co2207     N2215   2.084       .  S
Co2207     N2247   2.081       .  S
Co2207     N2223   2.084       .  S
Co2207    Cl2251   2.426       .  S
N2208      C2246   1.341       .  A
N2208      N2215   1.320       .  A
N2208     Co2209   2.079       .  S
Co2209     N2212   2.088       .  S
Co2209     N2229   2.093       .  S
Co2209     N2216   2.085       .  S
Co2209    Cl2251   2.475       .  S
C2210      N2248   1.351       .  A
N2211      N2218   1.319       .  A
N2211      N2241   1.326       .  A
N2211     Co2244   2.089       .  S
N2212      N2230   1.320       .  A
N2212      N2248   1.327       .  A
N2213      C2242   1.347       .  A
N2213      N2223   1.323       .  A
H2214      C2239   1.082       .  S
N2215      N2236   1.323       .  A
N2216      N2234   1.321       .  A
N2216      N2221   1.325       .  A
C2217      N2221   1.350       .  A
C2217      C2245   1.454       .  S
N2218      C2233   1.337       .  A
N2218     Co2240   2.071       .  S
C2219      N2247   1.337       .  A
C2219      C2222   1.454       .  S
C2219      H2253   1.082       .  S
C2222      N2243   1.349       .  A
N2223      N2229   1.320       .  A
N2224      C2250   1.345       .  A
N2224      N2226   1.319       .  A
N2224     Co2240   2.092       .  S
N2225      C2239   1.339       .  A
N2226      N2254   1.322       .  A
N2226     Co2244   2.079       .  S
H2227      C2250   1.082       .  S
H2228      C2245   1.081       .  S
N2230     Co2244   2.072       .  S
N2231      N2243   1.325       .  A
N2231      N2247   1.321       .  A
N2231     Co2240   2.078       .  S
C2232      N2236   1.348       .  A
C2232      C2246   1.458       .  S
C2233      C2252   1.455       .  S
C2233      H2237   1.080       .  S
N2234      C2245   1.340       .  A
N2234     Co2244   2.084       .  S
C2238      N2254   1.346       .  A
C2238      C2250   1.463       .  S
Co2240    Cl2251   2.471       .  S
N2241      C2252   1.350       .  A
Co2244    Cl2251   2.427       .  S
N2255      C2260   1.351       .  A
N2255      C2259   1.350       .  A
N2255      H2287   1.038       .  S
N2257      C2262   1.354       .  A
N2257      C2261   1.355       .  A
N2257      H2288   1.038       .  S
N2258      C2265   1.350       .  A
N2258      C2266   1.348       .  A
C2259      C2267   1.386       .  A
C2259      C2275   1.409   1_565  A
C2260      C2276   1.411       .  A
C2260      C2268   1.388       .  A
C2261      C2269   1.388       .  A
C2261      C2278   1.420   1_565  A
C2262      C2277   1.418       .  A
C2262      C2270   1.387       .  A
C2263      C2271   1.385       .  A
C2264      C2272   1.386       .  A
C2265      C2273   1.385       .  A
C2265      C2276   1.409       .  A
C2266      C2274   1.388       .  A
C2266      C2277   1.412       .  A
C2267      H2279   1.082       .  S
C2267      C2268   1.372       .  A
C2268      H2280   1.082       .  S
C2269      H2281   1.082       .  S
C2269      C2270   1.378       .  A
C2270      H2282   1.082       .  S
C2271      H2283   1.082       .  S
C2271      C2272   1.375       .  A
C2272      H2284   1.082       .  S
C2273      H2285   1.082       .  S
C2273      C2274   1.376       .  A
C2274      H2286   1.082       .  S
C2276      C2658   1.483       .  S
C2277      C2757   1.491       .  S
N2289      C2294   1.352       .  A
N2289      C2293   1.352       .  A
N2289      H2321   1.036       .  S
N2290      C2297   1.350   1_556  A
N2290      C2298   1.347       .  A
N2291      C2296   1.354       .  A
N2291      C2295   1.353       .  A
N2291      H2322   1.030       .  S
N2292      C2299   1.350   1_556  A
N2292      C2300   1.350       .  A
C2293      C2301   1.386       .  A
C2294      C2310   1.416       .  A
C2294      C2302   1.388       .  A
C2295      C2303   1.388       .  A
C2296      C2311   1.422       .  A
C2296      C2304   1.387       .  A
C2297      C2309   1.406       .  A
C2297      C2305   1.384       .  A
C2298      C2312   1.410       .  A
C2298      C2306   1.388       .  A
C2299      C2307   1.385       .  A
C2299      C2310   1.410       .  A
C2300      C2308   1.387       .  A
C2300      C2311   1.415       .  A
C2301      H2313   1.083       .  S
C2301      C2302   1.375       .  A
C2302      H2314   1.082       .  S
C2303      H2315   1.082       .  S
C2303      C2304   1.374       .  A
C2304      H2316   1.082       .  S
C2305      H2317   1.082       .  S
C2305      C2306   1.375   1_554  A
C2306      H2318   1.082       .  S
C2307      H2319   1.082       .  S
C2307      C2308   1.373   1_554  A
C2308      H2320   1.082       .  S
C2309      C2741   1.483       .  S
C2310      C2722   1.486       .  S
C2311      C2610   1.490       .  S
C2312      C2626   1.483       .  S
N2323      C2328   1.351       .  A
N2323      C2327   1.349       .  A
N2323      H2355   1.033       .  S
N2324      C2331   1.348       .  A
N2324      C2332   1.348       .  A
N2325      C2330   1.351       .  A
N2325      C2329   1.353       .  A
N2325      H2356   1.037       .  S
C2327      C2335   1.389       .  A
C2327      C2343   1.412       .  A
C2328      C2336   1.386       .  A
C2329      C2337   1.386       .  A
C2329      C2346   1.414       .  A
C2330      C2338   1.388       .  A
C2331      C2343   1.407       .  A
C2331      C2339   1.386       .  A
C2332      C2346   1.409       .  A
C2332      C2340   1.386       .  A
C2333      C2341   1.385       .  A
C2333      C2344   1.407       .  A
C2334      C2342   1.387       .  A
C2334      C2345   1.409       .  A
C2335      H2347   1.082       .  S
C2335      C2336   1.373       .  A
C2336      H2348   1.082       .  S
C2337      H2349   1.083       .  S
C2337      C2338   1.379       .  A
C2338      H2350   1.082       .  S
C2339      H2351   1.082       .  S
C2339      C2340   1.375       .  A
C2340      H2352   1.082       .  S
C2341      H2353   1.082       .  S
C2341      C2342   1.375       .  A
C2342      H2354   1.082       .  S
C2343      C2693   1.475       .  S
C2344      C2786   1.481       .  S
C2345      C2597   1.483       .  S
C2346      C2581   1.487       .  S
N2357      C2362   1.351       .  A
N2357      C2361   1.353       .  A
N2357      H2389   1.038       .  S
N2358      C2365   1.350   1_554  A
N2358      C2366   1.347       .  A
N2359      C2364   1.356       .  A
N2359      C2363   1.355       .  A
N2359      H2390   1.033       .  S
C2361      C2369   1.387       .  A
C2361      C2377   1.413       .  A
C2362      C2370   1.386       .  A
C2363      C2371   1.389       .  A
C2363      C2380   1.424       .  A
C2364      C2372   1.386       .  A
C2365      C2377   1.409       .  A
C2365      C2373   1.384       .  A
C2366      C2380   1.414       .  A
C2366      C2374   1.389       .  A
C2367      C2375   1.386       .  A
C2367      C2378   1.413       .  A
C2368      C2376   1.386       .  A
C2368      C2379   1.413       .  A
C2369      H2381   1.082       .  S
C2369      C2370   1.374       .  A
C2370      H2382   1.082   1_565  S
C2371      H2383   1.082       .  S
C2371      C2372   1.377       .  A
C2372      H2384   1.082   1_565  S
C2373      H2385   1.082       .  S
C2373      C2374   1.374   1_556  A
C2374      H2386   1.082       .  S
C2375      H2387   1.082       .  S
C2375      C2376   1.374   1_556  A
C2376      H2388   1.082       .  S
C2377      C2562   1.489       .  S
C2378      C2546   1.481       .  S
C2379      C2677   1.495       .  S
C2380      C2770   1.486       .  S
C2391      N2392   1.360       .  A
C2391      N2396   1.359       .  A
C2391      C2565   1.492       .  S
N2392      C2393   1.357       .  A
C2393      N2394   1.355       .  A
C2393      C2427   1.461       .  S
N2394      C2395   1.356       .  A
C2395      N2396   1.358       .  A
C2395      C2522   1.464       .  S
C2397      N2398   1.358       .  A
C2397      N2402   1.365       .  A
C2397      C2629   1.504       .  S
N2398      C2399   1.354       .  A
C2399      N2400   1.349       .  A
C2399      C2500   1.459       .  S
N2400      C2401   1.352       .  A
C2401      N2402   1.359       .  A
C2401      C2447   1.456       .  S
C2403      N2404   1.360       .  A
C2403      N2408   1.356       .  A
C2403      C2549   1.501       .  S
N2404      C2405   1.358       .  A
C2405      N2406   1.355       .  A
C2405      C2507   1.456       .  S
N2406      C2407   1.353       .  A
C2407      N2408   1.354       .  A
C2407      C2463   1.461       .  S
C2409      N2410   1.360       .  A
C2409      N2414   1.359       .  A
C2409      C2613   1.487       .  S
N2410      C2411   1.356       .  A
C2411      N2412   1.357       .  A
C2411      C2477   1.464       .  S
N2412      C2413   1.359       .  A
C2413      N2414   1.357       .  A
C2413      C2532   1.464       .  S
C2415      N2416   1.363       .  A
C2415      N2420   1.359       .  A
C2415      C2578   1.488       .  S
N2416      C2417   1.358       .  A
C2417      N2418   1.355       .  A
C2417      C2442   1.462       .  S
N2418      C2419   1.354       .  A
C2419      N2420   1.355       .  A
C2419      C2528   1.458       .  S
C2421      N2422   1.360       .  A
C2421      N2426   1.355       .  A
C2421      C2645   1.490       .  S
N2422      C2423   1.358       .  A
C2423      N2424   1.358       .  A
C2423      C2467   1.465       .  S
N2424      C2425   1.357       .  A
C2425      N2426   1.355       .  A
C2425      C2542   1.461       .  S
C2427      N2445   1.347       .  A
C2427      C2464   1.458       .  S
N2428      N2445   1.323       .  A
N2428      N2450   1.320       .  A
N2428     Co2465   2.071       .  S
C2429      N2454   1.339       .  A
C2429      C2467   1.457       .  S
C2429      H2474   1.082       .  S
H2430      C2471   1.081       .  S
C2431      N2455   1.334       .  A
C2431      C2435   1.451       .  S
C2431      H2460   1.082       .  S
Co2432     N2450   2.088       .  S
Co2432     N2440   2.068       .  S
Co2432     N2472   2.067       .  S
Co2432     N2448   2.092       .  S
Co2432    Cl2476   2.425       .  S
N2433      C2471   1.343       .  A
N2433      N2440   1.320       .  A
N2433     Co2434   2.088       .  S
Co2434     N2437   2.081       .  S
Co2434     N2454   2.078       .  S
Co2434     N2441   2.093       .  S
Co2434    Cl2476   2.472       .  S
C2435      N2473   1.350       .  A
C2435      C2490   1.460       .  S
N2436      N2443   1.319       .  A
N2436      N2466   1.324       .  A
N2436     Co2469   2.081       .  S
N2437      N2455   1.320       .  A
N2437      N2473   1.326       .  A
N2438      C2467   1.350       .  A
N2438      N2448   1.326       .  A
H2439      C2464   1.082       .  S
N2440      N2461   1.320       .  A
N2441      N2459   1.320       .  A
N2441      N2446   1.327       .  A
C2442      N2446   1.352       .  A
C2442      C2470   1.452       .  S
N2443      C2458   1.342       .  A
N2443     Co2465   2.087       .  S
C2444      N2472   1.333       .  A
C2444      C2447   1.451       .  S
C2444      H2478   1.082       .  S
C2447      N2468   1.350       .  A
N2448      N2454   1.321       .  A
N2449      C2475   1.338       .  A
N2449      N2451   1.319       .  A
N2449     Co2465   2.074       .  S
N2450      C2464   1.341       .  A
N2451      N2479   1.324       .  A
N2451     Co2469   2.082       .  S
H2452      C2475   1.080       .  S
H2453      C2470   1.082       .  S
N2455     Co2469   2.073       .  S
N2456      N2468   1.327       .  A
N2456      N2472   1.320       .  A
N2456     Co2465   2.086       .  S
C2457      N2461   1.344       .  A
C2457      C2471   1.460       .  S
C2457      C2482   1.456       .  S
C2458      C2477   1.461       .  S
C2458      H2462   1.082       .  S
N2459      C2470   1.336       .  A
N2459     Co2469   2.073       .  S
C2463      N2479   1.348       .  A
C2463      C2475   1.456       .  S
Co2465    Cl2476   2.468       .  S
N2466      C2477   1.348       .  A
Co2469    Cl2476   2.426       .  S
C2480      N2481   1.362       .  A
C2480      N2485   1.358       .  A
C2480      C2594   1.499       .  S
N2481      C2482   1.356       .  A
C2482      N2483   1.353       .  A
N2483      C2484   1.353       .  A
C2484      N2485   1.356       .  A
C2484      C2492   1.457       .  S
C2486      N2487   1.358       .  A
C2486      N2491   1.364       .  A
C2486      C2661   1.500       .  S
N2487      C2488   1.354       .  A
C2488      N2489   1.351       .  A
C2488      C2512   1.464       .  S
N2489      C2490   1.355       .  A
C2490      N2491   1.359       .  A
C2492      N2510   1.350       .  A
C2492      C2529   1.454       .  S
N2493      N2510   1.325       .  A
N2493      N2515   1.319       .  A
C2494      N2519   1.345       .  A
C2494      C2532   1.465       .  S
C2494      H2539   1.082       .  S
H2495      C2536   1.081       .  S
C2496      N2520   1.337   1_655  A
C2496      C2500   1.455       .  S
C2496      H2525   1.082       .  S
Co2497     N2537   2.081       .  S
Co2497     N2513   2.076       .  S
Co2497    Cl2541   2.428       .  S
N2498      C2536   1.341   1_455  A
N2498      N2505   1.320       .  A
Co2499     N2519   2.094       .  S
Co2499    Cl2541   2.473       .  S
C2500      N2538   1.349       .  A
N2501      N2508   1.320       .  A
N2501      N2531   1.325   1_455  A
N2502      N2520   1.320       .  A
N2502      N2538   1.326   1_455  A
N2503      C2532   1.345       .  A
N2503      N2513   1.322       .  A
H2504      C2529   1.082       .  S
N2505      N2526   1.324   1_455  A
N2506      N2524   1.321       .  A
N2506      N2511   1.323       .  A
C2507      N2511   1.347       .  A
C2507      C2535   1.454       .  S
N2508      C2523   1.337   1_455  A
C2509      N2537   1.339       .  A
C2509      C2512   1.455       .  S
C2509      H2543   1.082       .  S
C2512      N2533   1.350       .  A
N2513      N2519   1.320       .  A
N2514      C2540   1.341       .  A
N2514      N2516   1.320       .  A
N2515      C2529   1.337       .  A
N2516      N2544   1.322       .  A
N2516     Co2534   2.082       .  S
H2517      C2540   1.082       .  S
H2518      C2535   1.082       .  S
N2521      N2533   1.325       .  A
N2521      N2537   1.320       .  A
N2521     Co2530   2.083       .  S
C2522      N2526   1.348       .  A
C2522      C2536   1.458       .  S
C2523      C2542   1.455       .  S
C2523      H2527   1.080       .  S
N2524      C2535   1.338       .  A
N2524     Co2534   2.080       .  S
C2528      N2544   1.347       .  A
C2528      C2540   1.458       .  S
Co2530    Cl2541   2.470       .  S
N2531      C2542   1.348       .  A
C2545      H2552   1.083       .  S
C2545      C2546   1.395       .  A
C2545      C2550   1.404       .  A
C2546      C2547   1.413       .  A
C2547      C2548   1.404       .  A
C2547      C2554   1.521       .  S
C2548      H2553   1.084       .  S
C2548      C2549   1.414       .  A
C2549      C2550   1.431       .  A
C2550      C2551   1.521       .  S
C2551      F2555   1.384       .  S
C2551      F2556   1.384       .  S
C2551      F2557   1.383       .  S
C2554      F2558   1.382       .  S
C2554      F2559   1.382       .  S
C2554      F2560   1.381       .  S
C2561      H2568   1.083       .  S
C2561      C2562   1.400       .  A
C2561      C2566   1.408       .  A
C2562      C2563   1.413       .  A
C2563      C2564   1.405       .  A
C2563      C2570   1.519       .  S
C2564      H2569   1.082       .  S
C2564      C2565   1.408       .  A
C2565      C2566   1.424       .  A
C2566      C2567   1.519       .  S
C2567      F2571   1.385       .  S
C2567      F2572   1.382       .  S
C2567      F2573   1.384       .  S
C2570      F2574   1.380       .  S
C2570      F2575   1.383       .  S
C2570      F2576   1.385       .  S
C2577      H2584   1.082       .  S
C2577      C2578   1.408       .  A
C2577      C2582   1.404       .  A
C2578      C2579   1.422       .  A
C2579      C2580   1.407       .  A
C2579      C2586   1.518       .  S
C2580      H2585   1.084       .  S
C2580      C2581   1.402       .  A
C2581      C2582   1.414       .  A
C2582      C2583   1.520       .  S
C2583      F2587   1.384       .  S
C2583      F2588   1.381       .  S
C2583      F2589   1.383       .  S
C2586      F2590   1.383       .  S
C2586      F2591   1.384       .  S
C2586      F2592   1.385       .  S
C2593      H2600   1.082       .  S
C2593      C2594   1.412       .  A
C2593      C2598   1.403       .  A
C2594      C2595   1.432       .  A
C2595      C2596   1.408       .  A
C2595      C2602   1.523   1_655  S
C2596      C2597   1.397       .  A
C2597      C2598   1.409       .  A
C2598      C2599   1.519       .  S
C2599      F2603   1.385       .  S
C2599      F2604   1.383       .  S
C2599      F2605   1.382       .  S
C2602      F2606   1.383       .  S
C2602      F2607   1.383   1_455  S
C2609      H2616   1.084       .  S
C2609      C2610   1.404       .  A
C2609      C2614   1.407       .  A
C2610      C2611   1.417       .  A
C2611      C2612   1.402       .  A
C2611      C2618   1.520       .  S
C2612      H2617   1.084       .  S
C2612      C2613   1.407       .  A
C2613      C2614   1.419       .  A
C2614      C2615   1.517       .  S
C2615      F2619   1.385       .  S
C2615      F2620   1.382       .  S
C2615      F2621   1.383       .  S
C2618      F2622   1.383       .  S
C2618      F2623   1.381       .  S
C2618      F2624   1.384       .  S
C2625      H2632   1.083   1_655  S
C2625      C2626   1.394       .  A
C2625      C2630   1.406       .  A
C2626      C2627   1.409       .  A
C2627      C2628   1.408       .  A
C2627      C2634   1.521       .  S
C2628      H2633   1.082       .  S
C2628      C2629   1.415       .  A
C2629      C2630   1.434       .  A
C2630      C2631   1.524       .  S
C2631      F2636   1.384   1_655  S
C2631      F2637   1.384       .  S
C2634      F2638   1.383       .  S
C2634      F2639   1.383       .  S
C2634      F2640   1.384       .  S
C2641      H2648   1.083       .  S
C2641      C2642   1.399       .  A
C2641      C2646   1.407       .  A
C2642      C2643   1.413       .  A
C2643      C2644   1.402       .  A
C2643      C2650   1.519       .  S
C2644      H2649   1.082       .  S
C2644      C2645   1.407       .  A
C2645      C2646   1.426       .  A
C2646      C2647   1.519       .  S
C2647      F2651   1.385       .  S
C2647      F2652   1.381       .  S
C2647      F2653   1.384       .  S
C2650      F2654   1.382       .  S
C2650      F2655   1.383       .  S
C2650      F2656   1.385       .  S
C2657      H2664   1.083       .  S
C2657      C2658   1.397       .  A
C2657      C2662   1.406       .  A
C2658      C2659   1.413       .  A
C2659      C2660   1.405       .  A
C2659      C2666   1.519       .  S
C2660      H2665   1.084       .  S
C2660      C2661   1.412       .  A
C2661      C2662   1.430       .  A
C2662      C2663   1.523       .  S
C2663      F2667   1.382       .  S
C2663      F2668   1.384       .  S
C2663      F2669   1.383       .  S
C2666      F2670   1.383       .  S
C2666      F2671   1.382       .  S
C2666      F2672   1.383       .  S
C2673      H2680   1.082       .  S
C2673      C2674   1.407       .  A
C2673      C2678   1.404       .  A
C2674      C2675   1.418       .  A
C2675      C2676   1.411       .  A
C2675      C2682   1.517       .  S
C2676      H2681   1.083       .  S
C2676      C2677   1.407       .  A
C2677      C2678   1.415       .  A
C2678      C2679   1.520       .  S
C2679      F2683   1.385       .  S
C2679      F2684   1.383       .  S
C2679      F2685   1.379       .  S
C2682      F2686   1.384       .  S
C2682      F2687   1.382       .  S
C2682      F2688   1.385       .  S
C2689      H2696   1.082       .  S
C2689      C2690   1.412       .  A
C2689      C2694   1.402       .  A
C2690      C2691   1.427       .  A
C2691      C2692   1.403       .  A
C2691      C2698   1.522       .  S
C2692      H2697   1.083       .  S
C2692      C2693   1.397       .  A
C2693      C2694   1.408       .  A
C2694      C2695   1.519       .  S
C2695      F2699   1.384       .  S
C2695      F2700   1.383       .  S
C2695      F2701   1.382       .  S
C2698      F2702   1.384       .  S
C2698      F2703   1.382       .  S
C2698      F2704   1.385       .  S
C2705      H2712   1.084       .  S
C2705      C2706   1.412       .  A
C2705      C2710   1.404       .  A
C2706      C2707   1.432       .  A
C2707      C2708   1.411       .  A
C2707      C2714   1.523       .  S
C2708      H2713   1.083       .  S
C2708      C2709   1.400       .  A
C2709      C2710   1.414       .  A
C2710      C2711   1.519       .  S
C2711      F2715   1.384       .  S
C2711      F2716   1.381       .  S
C2711      F2717   1.383       .  S
C2714      F2718   1.383       .  S
C2714      F2719   1.383       .  S
C2714      F2720   1.385       .  S
C2721      H2728   1.083       .  S
C2721      C2722   1.401       .  A
C2721      C2726   1.408       .  A
C2722      C2723   1.411       .  A
C2723      C2724   1.402       .  A
C2723      C2730   1.520       .  S
C2724      H2729   1.082       .  S
C2724      C2725   1.409       .  A
C2725      C2726   1.423       .  A
C2726      C2727   1.519       .  S
C2727      F2731   1.385       .  S
C2727      F2732   1.384       .  S
C2727      F2733   1.382       .  S
C2730      F2734   1.383       .  S
C2730      F2735   1.379       .  S
C2730      F2736   1.384       .  S
C2737      H2744   1.082       .  S
C2737      C2738   1.409       .  A
C2737      C2742   1.403       .  A
C2738      C2739   1.427       .  A
C2739      C2740   1.408       .  A
C2739      C2746   1.519       .  S
C2740      H2745   1.083       .  S
C2740      C2741   1.399       .  A
C2741      C2742   1.412       .  A
C2743      F2747   1.384       .  S
C2743      F2748   1.380       .  S
C2743      F2749   1.384       .  S
C2746      F2750   1.381       .  S
C2746      F2751   1.384       .  S
C2746      F2752   1.385       .  S
C2753      H2760   1.083       .  S
C2753      C2754   1.408       .  A
C2753      C2758   1.404       .  A
C2754      C2755   1.416       .  A
C2755      C2756   1.407       .  A
C2755      C2762   1.516       .  S
C2756      H2761   1.084       .  S
C2756      C2757   1.405       .  A
C2757      C2758   1.416       .  A
C2758      C2759   1.521       .  S
C2759      F2763   1.385       .  S
C2759      F2764   1.381       .  S
C2759      F2765   1.383       .  S
C2762      F2766   1.382       .  S
C2762      F2767   1.384       .  S
C2762      F2768   1.385       .  S
C2769      H2776   1.083       .  S
C2769      C2770   1.398       .  A
C2769      C2774   1.407       .  A
C2770      C2771   1.411       .  A
C2771      C2772   1.404       .  A
C2771      C2778   1.519       .  S
C2772      H2777   1.082       .  S
C2772      C2773   1.411       .  A
C2773      C2774   1.431       .  A
C2774      C2775   1.523       .  S
C2775      F2779   1.385       .  S
C2775      F2780   1.383       .  S
C2775      F2781   1.384       .  S
C2778      F2782   1.381       .  S
C2778      F2783   1.383       .  S
C2778      F2784   1.384       .  S
C2785      H2792   1.083   1_655  S
C2785      C2786   1.398       .  A
C2785      C2790   1.406       .  A
C2786      C2787   1.408       .  A
C2787      C2788   1.404       .  A
C2787      C2794   1.519       .  S
C2788      H2793   1.082       .  S
C2788      C2789   1.412       .  A
C2789      C2790   1.430       .  A
C2790      C2791   1.523   1_655  S
C2791      F2795   1.386       .  S
C2791      F2796   1.383       .  S
C2791      F2797   1.383       .  S
C2794      F2798   1.383       .  S
C2794      F2800   1.382       .  S
