geometry optimzed in LAMMPS
_audit_creation_date              2020-12-01 
_audit_creation_method            'lammps2cif' 
_symmetry_space_group_name_H-M    'P1' 
_symmetry_Int_Tables_number       1 
_symmetry_cell_setting            triclinic 
loop_ 
_symmetry_equiv_pos_as_xyz 
  x,y,z 
_cell_length_a                    43.98296279 
_cell_length_b                    45.09275277292398 
_cell_length_c                    44.51061197348466 
_cell_angle_alpha                 89.98203736152504 
_cell_angle_beta                  90.3437545449967 
_cell_angle_gamma                 90.48300288310173 
loop_ 
_atom_site_label 
_atom_site_type_symbol 
_atom_site_fract_x 
_atom_site_fract_y 
_atom_site_fract_z 
_atom_site_charge 
C1          C  0.79726931  0.82035020  0.03215613     0.03100
C2          C  0.78581601  0.80602460  0.00641364    -0.13100
C3          C  0.79626885  0.81422080  0.97783965     0.00600
C4          C  0.81743319  0.83757039  0.97504331    -0.11600
C5          C  0.82802235  0.85272900  0.00057424     0.03100
C6          C  0.81874083  0.84328566  0.02901189    -0.11000
H7          H  0.76844253  0.78904725  0.00845012     0.08700
H8          H  0.82496128  0.84447949  0.95295662     0.06200
H9          H  0.82766009  0.85438067  0.04883354     0.06000
C10         C  0.76348209  0.21835900  0.03513454     0.03100
C11         C  0.75111675  0.22819149  0.00779391    -0.13100
C12         C  0.76313882  0.21834193  0.98048219     0.00600
C13         C  0.78808658  0.19900382  0.98069908    -0.11600
C14         C  0.80106938  0.18923310  0.00794610     0.03100
C15         C  0.78797434  0.19851996  0.03506024    -0.11000
H16         H  0.73230041  0.24355788  0.00777897     0.08700
H17         H  0.79762535  0.19182727  0.95954209     0.06200
H18         H  0.79642914  0.19004862  0.05620527     0.06000
C19         C  0.20085270  0.84872615  0.02254775     0.03100
C20         C  0.21402087  0.84088084  0.99518223    -0.13100
C21         C  0.20271428  0.85278466  0.96827662     0.00600
C22         C  0.17922712  0.87372631  0.96913851    -0.11600
C23         C  0.16569229  0.88120441  0.99653825     0.03100
C24         C  0.17657245  0.86850368  0.02309790    -0.11000
H25         H  0.23263897  0.82530931  0.99483107     0.08700
H26         H  0.17123961  0.88376052  0.94847372     0.06200
H27         H  0.16599774  0.87391617  0.04433434     0.06000
C28         C  0.79279858  0.05411935  0.79250187     0.03100
C29         C  0.78148534  0.02788956  0.77925734    -0.13100
C30         C  0.79296401  0.00017890  0.78823496     0.00600
C31         C  0.81535327  0.99896228  0.81085345    -0.11600
C32         C  0.82680821  0.02503268  0.82407289     0.03100
C33         C  0.81500947  0.05242400  0.81510002    -0.11000
H34         H  0.76361299  0.02897842  0.76245019     0.08700
H35         H  0.82375525  0.97764233  0.81828845     0.06200
H36         H  0.82306234  0.07259114  0.82589665     0.06000
C37         C  0.95422429  0.21709776  0.78682544     0.03100
C38         C  0.95412925  0.20173060  0.81424011    -0.13100
C39         C  0.98127333  0.19125211  0.82685839     0.00600
C40         C  0.00898016  0.19774574  0.81252840    -0.11600
C41         C  0.00936627  0.21293137  0.78477372     0.03100
C42         C  0.98174898  0.22217725  0.77197943    -0.11000
H43         H  0.93273561  0.19723991  0.82539706     0.08700
H44         H  0.03008615  0.19040938  0.82261324     0.06200
H45         H  0.98168981  0.23323540  0.75036350     0.06000
C46         C  0.95866373  0.84764946  0.80020949     0.03100
C47         C  0.98235324  0.84170235  0.78008278    -0.13100
C48         C  0.01182669  0.85277382  0.78571559     0.00600
C49         C  0.01759087  0.86892623  0.81210598    -0.11600
C50         C  0.99420862  0.87475560  0.83230171     0.03100
C51         C  0.96481129  0.86398313  0.82635824    -0.11000
H52         H  0.97774542  0.82899936  0.75987596     0.08700
H53         H  0.04028145  0.87728660  0.81685516     0.06200
H54         H  0.94655760  0.86893353  0.84177060     0.06000
C55         C  0.19242151  0.06604925  0.80910725     0.03100
C56         C  0.19954992  0.03909275  0.79532527    -0.13100
C57         C  0.18592526  0.01266966  0.80532274     0.00600
C58         C  0.16534355  0.01344147  0.82922722    -0.11600
C59         C  0.15700498  0.04054006  0.84189439     0.03100
C60         C  0.17109045  0.06668919  0.83226789    -0.11000
H61         H  0.21544441  0.03870907  0.77681621     0.08700
H62         H  0.15548504  0.99301960  0.83773578     0.06200
H63         H  0.16501634  0.08766692  0.84239104     0.06000
C64         C  0.95720332  0.80543083  0.17649260     0.03100
C65         C  0.98489368  0.79074894  0.18013261    -0.13100
C66         C  0.01196707  0.80342620  0.16938513     0.00600
C67         C  0.01094683  0.83056466  0.15389144    -0.11600
C68         C  0.98306179  0.84439765  0.14808820     0.03100
C69         C  0.95633456  0.83207351  0.16010572    -0.11000
H70         H  0.98557246  0.76985615  0.19213745     0.08700
H71         H  0.03183661  0.84130545  0.14686036     0.06200
H72         H  0.93491474  0.84343768  0.15713562     0.06000
C73         C  0.77303086  0.05628937  0.19993828     0.03100
C74         C  0.75751405  0.03016062  0.20842969    -0.13100
C75         C  0.76586666  0.00256204  0.19627225     0.00600
C76         C  0.78968005  0.00136471  0.17534239    -0.11600
C77         C  0.80563982  0.02715046  0.16713279     0.03100
C78         C  0.79702174  0.05444361  0.17932283    -0.11000
H79         H  0.73856515  0.03126159  0.22376998     0.08700
H80         H  0.79592263  0.98026687  0.16561580     0.06200
H81         H  0.80898289  0.07446291  0.17256638     0.06000
C82         C  0.95357022  0.21031627  0.22897933     0.03100
C83         C  0.95173707  0.19504740  0.20148154    -0.13100
C84         C  0.97814525  0.18540609  0.18699760     0.00600
C85         C  0.00657564  0.19121006  0.20025034    -0.11600
C86         C  0.00862743  0.20674272  0.22747677     0.03100
C87         C  0.98213369  0.21573609  0.24204528    -0.11000
H88         H  0.92967291  0.19028772  0.19152573     0.08700
H89         H  0.02710512  0.18330792  0.18971152     0.06200
H90         H  0.98388645  0.22668709  0.26361908     0.06000
Zr91       Zr  0.26643807  0.30906730  0.29329267     2.17500
O92         O  0.30397080  0.31223368  0.33382730    -0.51400
O93         O  0.26071864  0.36249865  0.29256690    -0.74600
O94         O  0.31737502  0.32059802  0.27596556    -0.81400
O95         O  0.20627350  0.28760266  0.35190928    -0.83100
O96         O  0.32397923  0.30197515  0.22894826    -0.78700
O97         O  0.25139947  0.31187578  0.34545116    -0.90400
O98         O  0.22509307  0.37475537  0.25770723    -0.76300
O99         O  0.25830185  0.32156448  0.24192627    -0.85800
O100        O  0.21326942  0.31736243  0.28848037    -0.85500
O101        O  0.28480590  0.26721241  0.26562692    -0.72300
O102        O  0.24232697  0.26369776  0.30844730    -0.84400
Zr103      Zr  0.19874163  0.24111182  0.22315052     2.26400
Zr104      Zr  0.27529526  0.27949986  0.21381258     2.06300
Zr105      Zr  0.18888372  0.27183133  0.30227761     2.10000
Zr106      Zr  0.20494934  0.32874201  0.23702343     1.78800
O107        O  0.17122299  0.23613471  0.33948613    -0.93200
O108        O  0.21920016  0.35624010  0.19209682    -0.41000
O109        O  0.18004730  0.28315774  0.25041758    -0.77700
O110        O  0.22171023  0.28737472  0.20821555    -0.96300
O111        O  0.25190000  0.23333128  0.22810357    -0.89700
O112        O  0.20616216  0.22945021  0.27479075    -0.92500
C113        C  0.24497258  0.38144844  0.27782618     1.01300
C114        C  0.22944798  0.30225830  0.36169834     1.14200
C115        C  0.33347897  0.31565954  0.25263254     1.05000
O116        O  0.28862805  0.31801149  0.17774185    -0.94600
O117        O  0.25815057  0.26248603  0.16407242    -0.90400
O118        O  0.21331552  0.23786415  0.17089520    -0.83500
C119        C  0.23488254  0.24775583  0.15436106     1.11600
O120        O  0.29754919  0.21782359  0.31963936    -0.96600
Zr121      Zr  0.25953129  0.22227849  0.27995389     1.88900
O122        O  0.20319006  0.18727311  0.22749659    -0.73300
O123        O  0.31353268  0.24543671  0.19534693    -0.52500
O124        O  0.30581680  0.19931623  0.26172778    -0.97200
O125        O  0.24300615  0.19162467  0.32204693    -0.54400
O126        O  0.24270561  0.17599899  0.25827462    -0.73800
C127        C  0.22096677  0.16873206  0.24054121     0.98600
O128        O  0.16387954  0.23173171  0.18121483    -0.62600
O129        O  0.15372082  0.31025607  0.31809780    -0.57400
O130        O  0.14602699  0.23678231  0.23782841    -0.94100
O131        O  0.13940073  0.25265012  0.28581540    -0.92500
O132        O  0.16125840  0.35498957  0.25682367    -0.92900
O133        O  0.16277629  0.33281641  0.20155535    -0.91700
C134        C  0.12956581  0.24187872  0.26082655     1.17400
H135        H  0.20686179  0.33336683  0.30133148     0.33300
H136        H  0.21651722  0.29204821  0.18767580     0.44200
H137        H  0.19465829  0.21203191  0.28052459     0.37700
H138        H  0.30625351  0.26438114  0.26925769     0.34200
H139        H  0.20629141  0.37411414  0.19228381     0.26000
H140        H  0.32518086  0.25713899  0.18044062     0.31900
H141        H  0.30179434  0.19535211  0.24018411     0.37800
H142        H  0.14591951  0.33929415  0.26072574     0.32300
H143        H  0.13487223  0.30669679  0.30636005     0.31200
H144        H  0.15790330  0.24766378  0.35292505     0.32900
H145        H  0.22437552  0.18123513  0.31499641     0.31800
H146        H  0.16289157  0.31392691  0.19022503     0.35800
H147        H  0.15186000  0.21385892  0.18660989     0.28600
H148        H  0.31337971  0.33219988  0.33221773     0.32800
H149        H  0.30318076  0.23854226  0.32468794     0.35600
H150        H  0.14824283  0.30497121  0.33897312     0.28200
H151        H  0.14923212  0.24828322  0.18122481     0.41100
H152        H  0.26914612  0.32325864  0.16792478     0.31200
H153        H  0.23998241  0.36377648  0.19634924     0.38800
H154        H  0.23567338  0.20594758  0.33716946     0.30600
H155        H  0.32778382  0.24282015  0.21242538     0.30700
H156        H  0.32026458  0.29818114  0.32851478     0.31000
C157        C  0.18851157  0.04891365  0.21058309     0.03100
C158        C  0.20351803  0.02205213  0.21614647    -0.13100
C159        C  0.19367936  0.99583384  0.20183987     0.00600
C160        C  0.16830481  0.99659763  0.18235944    -0.11600
C161        C  0.15353987  0.02348317  0.17641391     0.03100
C162        C  0.16414461  0.04944072  0.19019183    -0.11000
H163        H  0.22257285  0.02148308  0.23167751     0.08700
H164        H  0.16045741  0.97642187  0.17150285     0.06200
H165        H  0.15325154  0.07032067  0.18498501     0.06000
Zr166      Zr  0.26645156  0.73674620  0.27596110     2.17500
O167        O  0.30401467  0.69722217  0.27676701    -0.51400
O168        O  0.26009399  0.73244919  0.32989035    -0.74600
O169        O  0.31747828  0.75380845  0.28866985    -0.81400
O170        O  0.20707316  0.67836801  0.25100104    -0.83100
O171        O  0.32278661  0.80219636  0.27494391    -0.78700
O172        O  0.25242198  0.68501146  0.27508386    -0.90400
O173        O  0.22147631  0.76222362  0.34430613    -0.76300
O174        O  0.25703627  0.78580427  0.29303661    -0.85800
O175        O  0.21294044  0.73834726  0.28362257    -0.85500
O176        O  0.28451243  0.76820512  0.23618356    -0.72300
O177        O  0.24378587  0.72448061  0.22834622    -0.84400
Zr178      Zr  0.19778379  0.80894466  0.21362156     2.26400
Zr179      Zr  0.27402838  0.81759057  0.25305214     2.06300
Zr180      Zr  0.19009229  0.72760898  0.23579024     2.10000
Zr181      Zr  0.20343559  0.78756651  0.30001978     1.78800
O182        O  0.18213728  0.69746601  0.19094562    -0.93200
O183        O  0.21764821  0.82700340  0.33495694    -0.41000
O184        O  0.17983944  0.77686358  0.25274647    -0.77700
O185        O  0.22021890  0.82066919  0.26156199    -0.96300
O186        O  0.25101094  0.80672775  0.20537305    -0.89700
O187        O  0.20661486  0.75987828  0.19628442    -0.92500
C188        C  0.24233898  0.74331833  0.34967780     1.01300
C189        C  0.23071585  0.66876829  0.26487999     1.14200
C190        C  0.33308431  0.77777243  0.28583348     1.05000
O191        O  0.28986497  0.85262116  0.29180445    -0.94600
O192        O  0.25657327  0.86734915  0.23936425    -0.90400
O193        O  0.21141126  0.86101464  0.21486168    -0.83500
C194        C  0.23293226  0.87720683  0.22553018     1.11600
O195        O  0.30473765  0.72611260  0.18425054    -0.96600
Zr196      Zr  0.26011761  0.75727590  0.18929062     1.88900
O197        O  0.20594889  0.81460968  0.15999345    -0.73300
O198        O  0.31083138  0.83697212  0.21728221    -0.52500
O199        O  0.30076817  0.78222348  0.16197438    -0.97200
O200        O  0.24832058  0.71477741  0.15739428    -0.54400
O201        O  0.23996934  0.78024104  0.14461453    -0.73800
C202        C  0.22144127  0.80140328  0.13977349     0.98600
O203        O  0.15374885  0.84147491  0.21052906    -0.62600
O204        O  0.14864217  0.70263182  0.26196414    -0.57400
O205        O  0.14681127  0.79196882  0.20272974    -0.94100
O206        O  0.14024937  0.74461331  0.21937848    -0.92500
O207        O  0.15856953  0.76563651  0.32321511    -0.92900
O208        O  0.16184057  0.82232656  0.30607712    -0.91700
C209        C  0.13059849  0.76877469  0.20756755     1.17400
H210        H  0.20648780  0.72395228  0.29840251     0.33300
H211        H  0.21465927  0.84029240  0.26800296     0.44200
H212        H  0.19548827  0.75593801  0.17791944     0.37700
H213        H  0.30601707  0.76569206  0.23309803     0.34200
H214        H  0.23755907  0.82097648  0.34334967     0.26000
H215        H  0.32796209  0.84436652  0.22979630     0.31900
H216        H  0.30014578  0.77345853  0.14157682     0.37800
H217        H  0.15067798  0.75134415  0.30813611     0.32300
H218        H  0.14582284  0.68353432  0.25128480     0.31200
H219        H  0.16635613  0.70790218  0.17913998     0.32900
H220        H  0.25871043  0.71916027  0.13820312     0.31800
H221        H  0.15661087  0.82853584  0.28535583     0.35800
H222        H  0.15365359  0.85275700  0.22959349     0.28600
H223        H  0.31393643  0.69810450  0.29678107     0.32800
H224        H  0.30145024  0.70982071  0.19881862     0.35600
H225        H  0.15714150  0.69714352  0.28182717     0.28200
H226        H  0.15825838  0.85629973  0.19471751     0.41100
H227        H  0.27911699  0.84596533  0.31010348     0.31200
H228        H  0.22238619  0.84438990  0.32218700     0.38800
H229        H  0.22642948  0.71659702  0.15257007     0.30600
H230        H  0.31889866  0.81920573  0.20713051     0.30700
H231        H  0.31992921  0.70316199  0.26228771     0.31000
Zr232      Zr  0.76953844  0.25188189  0.22274884     2.17500
O233        O  0.80910288  0.25548249  0.18467447    -0.51400
O234        O  0.76422305  0.19796966  0.22020341    -0.74600
O235        O  0.81895117  0.23827531  0.24198124    -0.81400
O236        O  0.71024947  0.27121589  0.16309740    -0.83100
O237        O  0.82475267  0.25588099  0.28961349    -0.78700
O238        O  0.75556187  0.24809943  0.17041712    -0.90400
O239        O  0.72795542  0.18326100  0.25324797    -0.76300
O240        O  0.76055345  0.23683377  0.27304911    -0.85800
O241        O  0.71639836  0.24250639  0.22499676    -0.85500
O242        O  0.78664021  0.29305229  0.25301905    -0.72300
O243        O  0.74595268  0.29785562  0.20908340    -0.84400
Zr244      Zr  0.69839867  0.31411220  0.29300400     2.26400
Zr245      Zr  0.77614320  0.27801518  0.30362287     2.06300
Zr246      Zr  0.69241517  0.28829797  0.21199448     2.10000
Zr247      Zr  0.70729023  0.22797242  0.27549435     1.78800
O248        O  0.68154149  0.32662521  0.17493848    -0.93200
O249        O  0.72288080  0.19863085  0.31882419    -0.41000
O250        O  0.68181719  0.27317204  0.26248239    -0.77700
O251        O  0.72254743  0.26845294  0.30689899    -0.96300
O252        O  0.75164574  0.32365450  0.29107255    -0.89700
O253        O  0.70788912  0.32939151  0.24278829    -0.92500
C254        C  0.74804258  0.17794150  0.23321871     1.01300
C255        C  0.73361728  0.25703858  0.15378611     1.14200
C256        C  0.83448627  0.24259911  0.26601182     1.05000
O257        O  0.78470645  0.23888874  0.34034529    -0.94600
O258        O  0.75960904  0.29773028  0.35196443    -0.90400
O259        O  0.71333999  0.31922406  0.34492401    -0.83500
C260        C  0.73595464  0.31146837  0.36130134     1.11600
O261        O  0.80329932  0.34655366  0.20645053    -0.96600
Zr262      Zr  0.76122267  0.33839060  0.24085193     1.88900
O263        O  0.70348910  0.36764610  0.29690565    -0.73300
O264        O  0.81682833  0.30970756  0.32313255    -0.52500
O265        O  0.80472200  0.36300428  0.26444797    -0.97200
O266        O  0.74807286  0.36982804  0.19825324    -0.54400
O267        O  0.74121891  0.38231785  0.26538048    -0.73800
C268        C  0.72048539  0.38750196  0.28479056     0.98600
O269        O  0.65907456  0.30897760  0.33113939    -0.62600
O270        O  0.65220055  0.25582824  0.19287031    -0.57400
O271        O  0.64818682  0.32650216  0.27377312    -0.94100
O272        O  0.64307799  0.30830957  0.22629488    -0.92500
O273        O  0.66433415  0.20120993  0.25350915    -0.92900
O274        O  0.66583227  0.22151952  0.31098403    -0.91700
C275        C  0.63270898  0.32123829  0.24980185     1.17400
H276        H  0.71049726  0.22694699  0.21119032     0.33300
H277        H  0.71728382  0.26319856  0.32724481     0.44200
H278        H  0.69654200  0.34698121  0.23779851     0.37700
H279        H  0.80819758  0.29629973  0.25039007     0.34200
H280        H  0.71092050  0.17999319  0.31720495     0.26000
H281        H  0.82957721  0.29641617  0.33554426     0.31900
H282        H  0.79916078  0.36494593  0.28587747     0.37800
H283        H  0.65102701  0.21690610  0.24533074     0.32300
H284        H  0.64723888  0.26387222  0.17274756     0.31200
H285        H  0.67242865  0.34308462  0.18641410     0.32900
H286        H  0.74914572  0.39034928  0.20610431     0.31800
H287        H  0.65253160  0.23879584  0.30751942     0.35800
H288        H  0.64821194  0.32812322  0.33139631     0.28600
H289        H  0.81864892  0.23568293  0.18394339     0.32800
H290        H  0.80828074  0.32653425  0.19889576     0.35600
H291        H  0.66210042  0.23663935  0.18875416     0.28200
H292        H  0.64422264  0.29446973  0.32287906     0.41100
H293        H  0.79596011  0.24868169  0.35697964     0.31200
H294        H  0.74401372  0.19268008  0.31444634     0.38800
H295        H  0.72616597  0.36615279  0.19455897     0.30600
H296        H  0.82953155  0.31452027  0.30546957     0.30700
H297        H  0.82490416  0.26885216  0.19320950     0.31000
Zr298      Zr  0.70155539  0.74550669  0.28975595     2.17500
O299        O  0.66115507  0.70802311  0.28965171    -0.51400
O300        O  0.70107885  0.74809993  0.34407100    -0.74600
O301        O  0.71937169  0.69547294  0.29878404    -0.81400
O302        O  0.64289410  0.80621324  0.27642021    -0.83100
O303        O  0.76391957  0.68828562  0.27430797    -0.78700
O304        O  0.64865940  0.75868595  0.29234968    -0.90400
O305        O  0.73830847  0.77959686  0.36012519    -0.76300
O306        O  0.75413864  0.74956291  0.30144080    -0.85800
O307        O  0.70887979  0.79574772  0.30492472    -0.85500
O308        O  0.72703538  0.73175733  0.24441189    -0.72300
O309        O  0.68577677  0.77475900  0.24754876    -0.84400
Zr310      Zr  0.77342020  0.81679669  0.22900403     2.26400
Zr311      Zr  0.78018888  0.73708898  0.25609176     2.06300
Zr312      Zr  0.69401611  0.82509343  0.26267495     2.10000
Zr313      Zr  0.76194573  0.79990534  0.31565058     1.78800
O314        O  0.65520074  0.84873085  0.23192286    -0.93200
O315        O  0.80360427  0.77585578  0.34226657    -0.41000
O316        O  0.74725969  0.83037699  0.27400219    -0.77700
O317        O  0.78918722  0.78750749  0.27115363    -0.96300
O318        O  0.76557260  0.76676509  0.21392032    -0.89700
O319        O  0.72054544  0.81289172  0.21739794    -0.92500
C320        C  0.71610866  0.76165077  0.36469337     1.01300
C321        C  0.63227219  0.78132953  0.28645635     1.14200
C322        C  0.74124595  0.67907575  0.28997760     1.05000
O323        O  0.81878922  0.71955936  0.29108195    -0.94600
O324        O  0.82938965  0.75208062  0.23506485    -0.90400
O325        O  0.82392808  0.79931829  0.21773031    -0.83500
C326        C  0.83935202  0.77566715  0.22197050     1.11600
O327        O  0.67018141  0.72892278  0.19376873    -0.96600
Zr328      Zr  0.71282338  0.76258823  0.20287742     1.88900
O329        O  0.77160708  0.81783570  0.17448671    -0.73300
O330        O  0.79236130  0.70170349  0.21673367    -0.52500
O331        O  0.72708727  0.71880674  0.17437723    -0.97200
O332        O  0.67232113  0.78463521  0.17286407    -0.54400
O333        O  0.73817716  0.78224156  0.15905291    -0.73800
C334        C  0.75803182  0.80253762  0.15408063     0.98600
O335        O  0.81673404  0.85065645  0.23409831    -0.62600
O336        O  0.68300129  0.85780093  0.30472519    -0.57400
O337        O  0.75862073  0.86818509  0.22447255    -0.94100
O338        O  0.71179455  0.87380549  0.24523412    -0.92500
O339        O  0.74983711  0.84387099  0.34487987    -0.92900
O340        O  0.80447401  0.83363554  0.32504546    -0.91700
C341        C  0.73583237  0.88388230  0.23223860     1.17400
H342        H  0.69654636  0.80081498  0.32200808     0.33300
H343        H  0.81055439  0.79072718  0.27523608     0.44200
H344        H  0.71513051  0.82633612  0.20138177     0.37700
H345        H  0.72213069  0.71148557  0.23926345     0.34200
H346        H  0.80233720  0.78331344  0.36313836     0.26000
H347        H  0.77250100  0.69290238  0.21091576     0.31900
H348        H  0.74713722  0.72378325  0.16562811     0.37800
H349        H  0.73071261  0.83883379  0.35540345     0.32300
H350        H  0.67328746  0.87530623  0.29542727     0.31200
H351        H  0.65781792  0.84019097  0.21163571     0.32900
H352        H  0.68066611  0.80371021  0.16543646     0.31800
H353        H  0.80557499  0.84613293  0.30678839     0.35800
H354        H  0.81562690  0.86436364  0.21674747     0.28600
H355        H  0.66240671  0.69795407  0.30939830     0.32800
H356        H  0.65581453  0.73292183  0.21029779     0.35600
H357        H  0.66637114  0.84781692  0.31578370     0.28200
H358        H  0.81230158  0.86301731  0.25188406     0.41100
H359        H  0.82756133  0.70198957  0.28112312     0.31200
H360        H  0.79749614  0.75472433  0.34370960     0.38800
H361        H  0.65668713  0.79033478  0.18764143     0.30600
H362        H  0.79809236  0.71406477  0.19925414     0.30700
H363        H  0.66713608  0.69290717  0.27471873     0.31000
C364        C  0.19441873  0.22965970  0.03282059     0.03100
C365        C  0.20618442  0.24103573  0.00585282    -0.13100
C366        C  0.19182517  0.23456026  0.97835239     0.00600
C367        C  0.16639058  0.21540460  0.97785189    -0.11600
C368        C  0.15554680  0.20231789  0.00442767     0.03100
C369        C  0.16933633  0.21012914  0.03186452    -0.11000
H370        H  0.22648221  0.25480383  0.00619779     0.08700
H371        H  0.15520819  0.21055854  0.95666028     0.06200
H372        H  0.16086274  0.20055432  0.05256375     0.06000
Zr373      Zr  0.19690871  0.25470949  0.78908515     2.17500
O374        O  0.16196943  0.24161286  0.82951122    -0.51400
O375        O  0.20526232  0.20160480  0.78633192    -0.74600
O376        O  0.14520638  0.24540999  0.77193155    -0.81400
O377        O  0.25549845  0.27721257  0.84995530    -0.83100
O378        O  0.13815313  0.26395622  0.72493505    -0.78700
O379        O  0.20869183  0.25672535  0.84211340    -0.90400
O380        O  0.24023487  0.19070709  0.75072838    -0.76300
O381        O  0.20517149  0.24391344  0.73753613    -0.85800
O382        O  0.25023508  0.24757339  0.78504942    -0.85500
O383        O  0.17764790  0.29721474  0.76287214    -0.72300
O384        O  0.22000746  0.30020858  0.80559641    -0.84400
Zr385      Zr  0.26323787  0.32509120  0.72163398     2.26400
Zr386      Zr  0.18692274  0.28661872  0.71078743     2.06300
Zr387      Zr  0.27358806  0.29334936  0.80051295     2.10000
Zr388      Zr  0.25886043  0.23787336  0.73326005     1.78800
O389        O  0.28732189  0.33142691  0.83706037    -0.93200
O390        O  0.24520064  0.21047343  0.68782028    -0.41000
O391        O  0.28283320  0.28325110  0.74846513    -0.77700
O392        O  0.24063146  0.27928115  0.70537421    -0.96300
O393        O  0.21004352  0.33268360  0.72609064    -0.89700
O394        O  0.25571163  0.33578227  0.77341453    -0.92500
C395        C  0.22105743  0.18341770  0.77090169     1.01300
C396        C  0.23064776  0.26511308  0.85921857     1.14200
C397        C  0.12870608  0.25061896  0.74873435     1.05000
O398        O  0.17386828  0.25023990  0.67231624    -0.94600
O399        O  0.20318251  0.30569922  0.66178384    -0.90400
O400        O  0.24845822  0.32946731  0.66938734    -0.83500
C401        C  0.22656432  0.32036529  0.65257513     1.11600
O402        O  0.16738730  0.34655207  0.82007914    -0.96600
Zr403      Zr  0.20229422  0.34224928  0.77808991     1.88900
O404        O  0.25867845  0.37813438  0.72688332    -0.73300
O405        O  0.14759487  0.32092309  0.69466078    -0.52500
O406        O  0.15372405  0.36127725  0.76045490    -0.97200
O407        O  0.21764495  0.37598047  0.81838490    -0.54400
O408        O  0.21760334  0.38853502  0.75548815    -0.73800
C409        C  0.24007198  0.39608339  0.73906129     0.98600
O410        O  0.29834835  0.33541039  0.68052111    -0.62600
O411        O  0.31266867  0.25932650  0.81801296    -0.57400
O412        O  0.31529596  0.33222150  0.73743233    -0.94100
O413        O  0.32266155  0.31331522  0.78423742    -0.92500
O414        O  0.30175443  0.21226659  0.75602136    -0.92900
O415        O  0.30254256  0.23572018  0.69987248    -0.91700
C416        C  0.33193454  0.32639451  0.76026678     1.17400
H417        H  0.25689009  0.23135941  0.79757998     0.33300
H418        H  0.24564996  0.27522813  0.68464074     0.44200
H419        H  0.26693014  0.35330191  0.77957488     0.37700
H420        H  0.15612347  0.29991492  0.76669036     0.34200
H421        H  0.25125482  0.22336271  0.67083027     0.26000
H422        H  0.13841670  0.32796717  0.71356741     0.31900
H423        H  0.15528065  0.38301592  0.76319068     0.37800
H424        H  0.31624872  0.22826707  0.76166882     0.32300
H425        H  0.32244732  0.26966125  0.83519670     0.31200
H426        H  0.30910055  0.32809790  0.84155219     0.32900
H427        H  0.23547077  0.38712629  0.81072662     0.31800
H428        H  0.31419122  0.25417873  0.70397930     0.35800
H429        H  0.30850586  0.35449864  0.68546202     0.28600
H430        H  0.15255070  0.22239930  0.82375232     0.32800
H431        H  0.16083028  0.32591723  0.82430359     0.35600
H432        H  0.30154590  0.24249331  0.82721958     0.28200
H433        H  0.31447905  0.32026513  0.68189837     0.41100
H434        H  0.15933139  0.26056364  0.65893085     0.31200
H435        H  0.25952846  0.19366988  0.68716299     0.38800
H436        H  0.22616142  0.36294733  0.83418167     0.30600
H437        H  0.15874510  0.33842730  0.68683242     0.30700
H438        H  0.14530761  0.25622940  0.82847852     0.31000
Zr439      Zr  0.19506512  0.82305997  0.77926225     2.17500
O440        O  0.15281322  0.82554430  0.81449829    -0.51400
O441        O  0.19998807  0.87658723  0.77794185    -0.74600
O442        O  0.21097780  0.82935799  0.83103759    -0.81400
O443        O  0.13712183  0.81049078  0.71615343    -0.83100
O444        O  0.25628663  0.80657526  0.83879902    -0.78700
O445        O  0.14360493  0.83078495  0.76261814    -0.90400
O446        O  0.23948788  0.88976455  0.74805313    -0.76300
O447        O  0.24822645  0.83198197  0.77641810    -0.85800
O448        O  0.20391463  0.83651067  0.72830445    -0.85500
O449        O  0.21745186  0.77718516  0.79484843    -0.72300
O450        O  0.17727978  0.78169684  0.75011366    -0.84400
Zr451      Zr  0.26403030  0.75791892  0.71062985     2.26400
Zr452      Zr  0.27118636  0.78599251  0.79058067     2.06300
Zr453      Zr  0.18736087  0.79490838  0.69897792     2.10000
Zr454      Zr  0.25733919  0.84444272  0.72522679     1.78800
O455        O  0.14703100  0.76693994  0.67387232    -0.93200
O456        O  0.30401311  0.86573443  0.74602971    -0.41000
O457        O  0.24102338  0.80341460  0.69464972    -0.77700
O458        O  0.28146455  0.79949557  0.73962012    -0.96300
O459        O  0.25469947  0.74416784  0.76130545    -0.89700
O460        O  0.21072311  0.74906817  0.71315220    -0.92500
C461        C  0.21772608  0.89587196  0.76593084     1.01300
C462        C  0.12725924  0.82348954  0.73987874     1.14200
C463        C  0.23326622  0.82139459  0.84771264     1.05000
O464        O  0.31322534  0.81811959  0.80601490    -0.94600
O465        O  0.31924017  0.76320283  0.77721566    -0.90400
O466        O  0.31504012  0.74878083  0.72830867    -0.83500
C467        C  0.32990787  0.75220181  0.75290000     1.11600
O468        O  0.16039921  0.72751589  0.79980829    -0.96600
Zr469      Zr  0.20119694  0.73633518  0.76409730     1.88900
O470        O  0.25926461  0.70434767  0.71192802    -0.73300
O471        O  0.28159971  0.74865902  0.82880515    -0.52500
O472        O  0.21452070  0.70666664  0.80787994    -0.97200
O473        O  0.15568913  0.71392651  0.74193798    -0.54400
O474        O  0.22072883  0.69098333  0.74290266    -0.73800
C475        C  0.24219345  0.68496194  0.72467277     0.98600
O476        O  0.30718217  0.75471613  0.67656596    -0.62600
O477        O  0.17855475  0.83712336  0.66603598    -0.57400
O478        O  0.24908042  0.75264142  0.65865594    -0.94100
O479        O  0.20363857  0.77505936  0.65054229    -0.92500
O480        O  0.24405154  0.87802205  0.68446327    -0.92900
O481        O  0.29619133  0.84799488  0.68658693    -0.91700
C482        C  0.22692103  0.76042575  0.64174704     1.17400
H483        H  0.19277322  0.85407427  0.72276712     0.33300
H484        H  0.30297611  0.80281080  0.73694681     0.44200
H485        H  0.20457623  0.73330865  0.69968257     0.37700
H486        H  0.21210663  0.77271352  0.81537842     0.34200
H487        H  0.30684315  0.88470959  0.73516618     0.26000
H488        H  0.29643870  0.75824362  0.84260443     0.31900
H489        H  0.23685503  0.70442602  0.80677741     0.37800
H490        H  0.25664778  0.89599621  0.68805638     0.32300
H491        H  0.19874898  0.84168085  0.65739585     0.31200
H492        H  0.14873384  0.74657373  0.68196060     0.32900
H493        H  0.16204860  0.70651990  0.72204007     0.31800
H494        H  0.29757579  0.82768904  0.67827439     0.35800
H495        H  0.30414542  0.73618351  0.66495002     0.28600
H496        H  0.15563831  0.84426231  0.82585627     0.32800
H497        H  0.15320570  0.74756737  0.80514972     0.35600
H498        H  0.16660296  0.82885910  0.64903034     0.28200
H499        H  0.30457297  0.77097186  0.66183687     0.41100
H500        H  0.31644494  0.81371532  0.82758568     0.31200
H501        H  0.29871611  0.87164430  0.76674975     0.38800
H502        H  0.14226612  0.73085667  0.73731123     0.30600
H503        H  0.26264558  0.74707896  0.84061249     0.30700
H504        H  0.15626802  0.80950262  0.82930460     0.31000
Zr505      Zr  0.76590162  0.24781011  0.79124690     2.17500
O506        O  0.80898076  0.24739995  0.82609929    -0.51400
O507        O  0.76355459  0.19375553  0.79130694    -0.74600
O508        O  0.75105088  0.24344959  0.84363684    -0.81400
O509        O  0.82322954  0.25966477  0.72755969    -0.83100
O510        O  0.70223973  0.25849318  0.84925058    -0.78700
O511        O  0.81757981  0.24172503  0.77506144    -0.90400
O512        O  0.73414760  0.17886718  0.75190568    -0.76300
O513        O  0.71412744  0.23361005  0.78520199    -0.85800
O514        O  0.76054860  0.23559472  0.73937956    -0.85500
O515        O  0.73848412  0.29115108  0.80618621    -0.72300
O516        O  0.78044476  0.29151302  0.76361834    -0.84400
Zr517      Zr  0.69321537  0.30765417  0.72001240     2.26400
Zr518      Zr  0.68613941  0.27676707  0.79957596     2.06300
Zr519      Zr  0.77397061  0.27925366  0.71155529     2.10000
Zr520      Zr  0.70854951  0.22225906  0.73305725     1.78800
O521        O  0.81125017  0.31766987  0.69942495    -0.93200
O522        O  0.66749241  0.19120490  0.75236171    -0.41000
O523        O  0.72174094  0.26535483  0.70447180    -0.77700
O524        O  0.67882495  0.26398594  0.74748454    -0.96300
O525        O  0.69912291  0.32047205  0.77145578    -0.89700
O526        O  0.74510631  0.32175771  0.72541657    -0.92500
C527        C  0.75201591  0.17376972  0.77404990     1.01300
C528        C  0.83332553  0.24731206  0.75163091     1.14200
C529        C  0.72746567  0.24832493  0.85965962     1.05000
O530        O  0.64801018  0.24001135  0.81390230    -0.94600
O531        O  0.63619199  0.29548291  0.78486967    -0.90400
O532        O  0.64210662  0.31477624  0.73795202    -0.83500
C533        C  0.62613571  0.30846423  0.76111638     1.11600
O534        O  0.79340790  0.34425010  0.81116823    -0.96600
Zr535      Zr  0.75112726  0.33411329  0.77691291     1.88900
O536        O  0.69096392  0.36130136  0.72164929    -0.73300
O537        O  0.67093221  0.31320656  0.83680851    -0.52500
O538        O  0.73215011  0.35871060  0.82169177    -0.97200
O539        O  0.79096747  0.36635419  0.75690428    -0.54400
O540        O  0.72520292  0.37717532  0.75656313    -0.73800
C541        C  0.70430034  0.38174311  0.73690144     0.98600
O542        O  0.65594001  0.30257473  0.67946288    -0.62600
O543        O  0.79087127  0.24595408  0.67203878    -0.57400
O544        O  0.70972879  0.31754556  0.66932716    -0.94100
O545        O  0.75704048  0.29860612  0.66265100    -0.92500
O546        O  0.72495517  0.19619489  0.68810489    -0.92900
O547        O  0.66855685  0.21377185  0.69591558    -0.91700
C548        C  0.73300851  0.31193665  0.65315527     1.17400
H549        H  0.77372879  0.21942344  0.73402605     0.33300
H550        H  0.65776940  0.25899445  0.74362042     0.44200
H551        H  0.74999225  0.33844694  0.71266867     0.37700
H552        H  0.74270195  0.29615700  0.82688775     0.34200
H553        H  0.67405660  0.17057802  0.74869427     0.26000
H554        H  0.65823572  0.30194492  0.85121769     0.31900
H555        H  0.71173704  0.36594474  0.81593114     0.37800
H556        H  0.74734809  0.19503170  0.68995585     0.32300
H557        H  0.81071116  0.25424184  0.66560323     0.31200
H558        H  0.82802776  0.31514226  0.71410669     0.32900
H559        H  0.78265637  0.37462845  0.73799254     0.31800
H560        H  0.66454132  0.23362093  0.68732236     0.35800
H561        H  0.64114400  0.28742363  0.68639786     0.28600
H562        H  0.80658480  0.22923843  0.83841184     0.32800
H563        H  0.79135079  0.36530957  0.81707349     0.35600
H564        H  0.79603667  0.22722693  0.68241804     0.28200
H565        H  0.64453984  0.32142358  0.67929898     0.41100
H566        H  0.65974808  0.22317991  0.82210995     0.31200
H567        H  0.66862099  0.19351125  0.77444654     0.38800
H568        H  0.80711802  0.35268245  0.75037013     0.30600
H569        H  0.68978306  0.31803884  0.84811109     0.30700
H570        H  0.80567487  0.26410703  0.84011083     0.31000
Zr571      Zr  0.76005010  0.81468176  0.79407811     2.17500
O572        O  0.75607188  0.85347658  0.83206340    -0.51400
O573        O  0.81522532  0.81856621  0.79101247    -0.74600
O574        O  0.76892804  0.79746873  0.84476773    -0.81400
O575        O  0.74095271  0.87221594  0.73385244    -0.83100
O576        O  0.75180248  0.75000387  0.85041179    -0.78700
O577        O  0.76187700  0.86657595  0.78038536    -0.90400
O578        O  0.83184001  0.78523666  0.75671967    -0.76300
O579        O  0.77610985  0.76485433  0.78740318    -0.85800
O580        O  0.77244733  0.81080040  0.74233310    -0.85500
O581        O  0.71735089  0.78452318  0.80878386    -0.72300
O582        O  0.71437085  0.82734328  0.76767954    -0.84400
Zr583      Zr  0.70029390  0.74176818  0.72213178     2.26400
Zr584      Zr  0.73331216  0.73430132  0.80087051     2.06300
Zr585      Zr  0.72690509  0.82264356  0.71579844     2.10000
Zr586      Zr  0.78760091  0.76076552  0.73540311     1.78800
O587        O  0.68800217  0.85685477  0.69833476    -0.93200
O588        O  0.81423068  0.71768113  0.75503577    -0.41000
O589        O  0.74264042  0.77243200  0.70729406    -0.77700
O590        O  0.74607687  0.72930671  0.74877306    -0.96300
O591        O  0.68767292  0.74581411  0.77376295    -0.89700
O592        O  0.68418753  0.79167690  0.72879596    -0.92500
C593        C  0.83635603  0.80566691  0.77625126     1.01300
C594        C  0.75351674  0.88240916  0.75794077     1.14200
C595        C  0.76356150  0.77427198  0.86050544     1.05000
O596        O  0.77310260  0.70015849  0.81624582    -0.94600
O597        O  0.71723998  0.68469569  0.78411158    -0.90400
O598        O  0.70002014  0.68969003  0.73601887    -0.83500
C599        C  0.70663481  0.67413639  0.75926541     1.11600
O600        O  0.66235470  0.83106344  0.82089488    -0.96600
Zr601      Zr  0.67245568  0.79589129  0.78068097     1.88900
O602        O  0.64530190  0.73785519  0.72588037    -0.73300
O603        O  0.69605683  0.71637842  0.83698976    -0.52500
O604        O  0.64375692  0.77439741  0.82211558    -0.97200
O605        O  0.64228563  0.83706712  0.76171353    -0.54400
O606        O  0.62838025  0.77133549  0.75986370    -0.73800
C607        C  0.62424062  0.75039058  0.74092684     0.98600
O608        O  0.69661381  0.70229612  0.68460216    -0.62600
O609        O  0.76500813  0.84386508  0.68247373    -0.57400
O610        O  0.69585805  0.75895397  0.67071260    -0.94100
O611        O  0.71249263  0.80661023  0.66571648    -0.92500
O612        O  0.82132481  0.77787582  0.69573396    -0.92900
O613        O  0.79560920  0.72722186  0.69333435    -0.91700
C614        C  0.70186918  0.78216954  0.65520648     1.17400
H615        H  0.78850487  0.82449391  0.73691029     0.33300
H616        H  0.75243696  0.70935432  0.74438194     0.44200
H617        H  0.66677461  0.79592502  0.71624588     0.37700
H618        H  0.71258156  0.78777653  0.82966328     0.34200
H619        H  0.83384427  0.71757078  0.74425438     0.26000
H620        H  0.70771454  0.70343449  0.85075995     0.31900
H621        H  0.64182283  0.75304512  0.81721858     0.37800
H622        H  0.80796397  0.78862092  0.68155472     0.32300
H623        H  0.77221401  0.82698061  0.67036918     0.31200
H624        H  0.67067242  0.84419683  0.69187174     0.32900
H625        H  0.63012422  0.82877373  0.74486992     0.31800
H626        H  0.77689376  0.71489903  0.69233570     0.35800
H627        H  0.67770269  0.70589317  0.67301254     0.28600
H628        H  0.77515483  0.85295515  0.84396620     0.32800
H629        H  0.64000676  0.83358356  0.82096902     0.35600
H630        H  0.75330359  0.85616331  0.66814075     0.28200
H631        H  0.71342909  0.70575731  0.67028913     0.41100
H632        H  0.76222421  0.68326064  0.82563314     0.31200
H633        H  0.81968985  0.72299647  0.77596488     0.38800
H634        H  0.65719029  0.85048916  0.75199825     0.30600
H635        H  0.69101255  0.73396330  0.84924822     0.30700
H636        H  0.73990840  0.84676355  0.84596142     0.31000
C637        C  0.50192500  0.71055836  0.72107577     0.03100
C638        C  0.50020575  0.69121322  0.69664724    -0.13100
C639        C  0.47216727  0.68021540  0.68691193     0.00600
C640        C  0.44555223  0.68892936  0.70122894    -0.11600
C641        C  0.44707532  0.70752580  0.72644140     0.03100
C642        C  0.47543075  0.71834780  0.73640767    -0.11000
H643        H  0.52073115  0.68502085  0.68488502     0.08700
H644        H  0.42372829  0.68185013  0.69223750     0.06200
H645        H  0.47673049  0.73337009  0.75537545     0.06000
C646        C  0.27526571  0.51196651  0.70383737     0.03100
C647        C  0.29529072  0.50855333  0.67991549    -0.13100
C648        C  0.30447603  0.53300952  0.66309908     0.00600
C649        C  0.29391035  0.56124829  0.67062990    -0.11600
C650        C  0.27508436  0.56511236  0.69558600     0.03100
C651        C  0.26496844  0.54022660  0.71173717    -0.11000
H652        H  0.30413753  0.48679345  0.67480564     0.08700
H653        H  0.30134365  0.58036176  0.65775520     0.06200
H654        H  0.24966085  0.54285500  0.73051885     0.06000
C655        C  0.50871599  0.34414871  0.72100103     0.03100
C656        C  0.48096570  0.34047960  0.73570279    -0.13100
C657        C  0.45394509  0.35010966  0.72225471     0.00600
C658        C  0.45522757  0.36597115  0.69500059    -0.11600
C659        C  0.48308651  0.37050184  0.68025100     0.03100
C660        C  0.50977331  0.35943863  0.69352201    -0.11000
H661        H  0.48045375  0.32981806  0.75748330     0.08700
H662        H  0.43458009  0.37513581  0.68561515     0.06200
H663        H  0.53147630  0.36310360  0.68266173     0.06000
C664        C  0.67201856  0.50393000  0.71497002     0.03100
C665        C  0.65344666  0.50793651  0.68963412    -0.13100
C666        C  0.64529774  0.53638875  0.68011133     0.00600
C667        C  0.65510041  0.56106571  0.69673363    -0.11600
C668        C  0.67277477  0.55743037  0.72279724     0.03100
C669        C  0.68119962  0.52880186  0.73196184    -0.11000
H670        H  0.64560529  0.48876825  0.67700391     0.08700
H671        H  0.64908219  0.58317467  0.68933321     0.06200
H672        H  0.69468353  0.52599148  0.75216510     0.06000
C673        C  0.51119746  0.35584423  0.27887252     0.03100
C674        C  0.48327395  0.34581628  0.26689922    -0.13100
C675        C  0.45578148  0.35272343  0.28120153     0.00600
C676        C  0.45636501  0.37055815  0.30708036    -0.11600
C677        C  0.48395534  0.38117273  0.31892435     0.03100
C678        C  0.51133131  0.37331167  0.30509601    -0.11000
H679        H  0.48299303  0.33287818  0.24640506     0.08700
H680        H  0.43524109  0.37631816  0.31797804     0.06200
H681        H  0.53272708  0.38101029  0.31459101     0.06000
C682        C  0.69794440  0.50770307  0.32223634     0.03100
C683        C  0.67166373  0.51032931  0.33949635    -0.13100
C684        C  0.66058157  0.53822200  0.34738392     0.00600
C685        C  0.67693627  0.56368931  0.33899800    -0.11600
C686        C  0.70457509  0.56153088  0.32351801     0.03100
C687        C  0.71456887  0.53334149  0.31423623    -0.11000
H688        H  0.65968223  0.49046881  0.34659498     0.08700
H689        H  0.66835255  0.58533887  0.34500305     0.06200
H690        H  0.73513237  0.53133705  0.30114477     0.06000
C691        C  0.51024962  0.74787565  0.32090066     0.03100
C692        C  0.48253609  0.76062089  0.31196299    -0.13100
C693        C  0.45486987  0.75037638  0.32411663     0.00600
C694        C  0.45516015  0.72676029  0.34478884    -0.11600
C695        C  0.48272149  0.71433568  0.35436749     0.03100
C696        C  0.51013228  0.72518833  0.34253526    -0.11000
H697        H  0.48248187  0.77830887  0.29548291     0.08700
H698        H  0.43386090  0.71781059  0.35309081     0.06200
H699        H  0.53144234  0.71562464  0.34989948     0.06000
C700        C  0.27226249  0.50232308  0.31207941     0.03100
C701        C  0.25829692  0.52722444  0.29917294    -0.13100
C702        C  0.26828805  0.55590374  0.30673700     0.00600
C703        C  0.29258184  0.55970715  0.32703872    -0.11600
C704        C  0.30664439  0.53495990  0.33992319     0.03100
C705        C  0.29682967  0.50642936  0.33187586    -0.11000
H706        H  0.23959917  0.52432427  0.28344822     0.08700
H707        H  0.30058288  0.58183530  0.33262639     0.06200
H708        H  0.30851948  0.48736604  0.34099636     0.06000
C709        C  0.68153511  0.73230869  0.48496532     0.03100
C710        C  0.68788449  0.74986466  0.51011290    -0.13100
C711        C  0.67418045  0.74328557  0.53763156     0.00600
C712        C  0.65413470  0.71895652  0.53992118    -0.11600
C713        C  0.64809132  0.70106196  0.51483141     0.03100
C714        C  0.66181593  0.70793732  0.48738422    -0.11000
H715        H  0.70275038  0.76905147  0.50811396     0.08700
H716        H  0.64290438  0.71436618  0.56103026     0.06200
H717        H  0.65631151  0.69490226  0.46758162     0.06000
C718        C  0.70146151  0.34729253  0.47895258     0.03100
C719        C  0.67341749  0.36178261  0.47758318    -0.13100
C720        C  0.65908103  0.37140263  0.50386187     0.00600
C721        C  0.67281909  0.36538780  0.53174095    -0.11600
C722        C  0.70077368  0.35043162  0.53364994     0.03100
C723        C  0.71493301  0.34141833  0.50691898    -0.11000
H724        H  0.66306464  0.36621362  0.45588963     0.08700
H725        H  0.66221426  0.37317101  0.55196604     0.06200
H726        H  0.73649077  0.32998339  0.50779211     0.06000
C727        C  0.26702496  0.71268493  0.47284774     0.03100
C728        C  0.29256976  0.69462492  0.47622313    -0.13100
C729        C  0.30467705  0.68883296  0.50472133     0.00600
C730        C  0.29018502  0.70016415  0.53014634    -0.11600
C731        C  0.26298544  0.71610425  0.52732184     0.03100
C732        C  0.25170001  0.72271426  0.49849565    -0.11000
H733        H  0.30339571  0.68548513  0.45650773     0.08700
H734        H  0.29996388  0.69626172  0.55218217     0.06200
H735        H  0.23115708  0.73559352  0.49607760     0.06000
C736        C  0.25886428  0.34504398  0.47843735     0.03100
C737        C  0.24579017  0.34019358  0.50655754    -0.13100
C738        C  0.25886550  0.35295090  0.53228619     0.00600
C739        C  0.28479059  0.37126256  0.52960677    -0.11600
C740        C  0.29816387  0.37631135  0.50134241     0.03100
C741        C  0.28562408  0.36201055  0.47610659    -0.11000
H742        H  0.22592306  0.32594940  0.50851857     0.08700
H743        H  0.29495059  0.38096054  0.54959376     0.06200
H744        H  0.29693455  0.36344810  0.45464309     0.06000
O745        O  0.90183931  0.97848323  0.99868454    -0.86500
O746        O  0.07317834  0.99271306  0.00826476    -0.86700
O747        O  0.99462374  0.95309627  0.95323770    -0.88400
O748        O  0.98803289  0.94716516  0.04952818    -0.87100
O749        O  0.98253793  0.97970392  0.08859115    -0.86700
O750        O  0.99175906  0.99033233  0.91870913    -0.88100
O751        O  0.03956814  0.95387155  0.00533617    -0.86600
O752        O  0.94162703  0.94624593  0.99864555    -0.86200
Zr753      Zr  0.98859603  0.97463405  0.00299094     2.84300
O754        O  0.01582252  0.00464035  0.03663639    -1.08100
O755        O  0.95660809  0.00300025  0.97253837    -1.08900
C756        C  0.91301683  0.95197886  0.99742200     1.06600
C757        C  0.06680959  0.96477089  0.00690678     1.06500
C758        C  0.99504528  0.96291437  0.92595575     1.09500
C759        C  0.98508064  0.95313209  0.07766547     1.07300
H760        H  0.03236796  0.99722217  0.96359918     0.32800
O761        O  0.01818067  0.00801975  0.97581382    -1.29100
H762        H  0.94158091  0.98606706  0.04443055     0.32500
O763        O  0.95394184  0.99995937  0.03325448    -1.30800
O764        O  0.06693377  0.08821293  0.00973111    -0.86500
O765        O  0.89427045  0.07585894  0.00293244    -0.88000
O766        O  0.03695673  0.03979292  0.92362148    -0.86600
O767        O  0.03029327  0.03252018  0.09380141    -0.86700
O768        O  0.93046954  0.02836094  0.08896277    -0.86400
O769        O  0.93836918  0.03174348  0.91859859    -0.86200
O770        O  0.97856459  0.12032812  0.95853317    -0.86600
O771        O  0.97467641  0.11551290  0.05846658    -0.86000
O772        O  0.98388711  0.08501597  0.92206519    -0.87100
O773        O  0.97685938  0.07732280  0.09239458    -0.86200
O774        O  0.07192503  0.04144818  0.96179549    -0.86600
O775        O  0.89958565  0.02773334  0.95253272    -0.86400
O776        O  0.89578954  0.02704454  0.05044560    -0.86000
O777        O  0.06778999  0.03760271  0.05873237    -0.86400
O778        O  0.02839451  0.12210563  0.00856451    -0.86700
O779        O  0.92791623  0.11478845  0.00638342    -0.88100
Zr780      Zr  0.04462813  0.03879606  0.00908044     2.83100
Zr781      Zr  0.92260105  0.02917360  0.00261620     2.83500
Zr782      Zr  0.98641602  0.03672056  0.94566341     2.84100
Zr783      Zr  0.98142107  0.03025620  0.06659066     2.83400
Zr784      Zr  0.97954133  0.09445958  0.00780054     2.84200
O785        O  0.95067800  0.05965601  0.03526663    -1.08600
O786        O  0.01368035  0.06796825  0.97816162    -1.08100
C787        C  0.05694456  0.11504121  0.00894235     1.06500
C788        C  0.90060818  0.10389428  0.00434796     1.09200
C789        C  0.06457220  0.04075915  0.93373687     1.06700
C790        C  0.05855791  0.03532511  0.08606771     1.07100
C791        C  0.90284535  0.02780684  0.07862517     1.06700
C792        C  0.91001712  0.02862009  0.92547563     1.06200
C793        C  0.98075177  0.11214136  0.93064818     1.06600
C794        C  0.97429470  0.10495120  0.08558461     1.06100
H795        H  0.93899677  0.07470234  0.96227244     0.32800
O796        O  0.95208565  0.06311515  0.97512533    -1.29700
H797        H  0.02199567  0.07761552  0.05261459     0.32800
O798        O  0.01059294  0.06496679  0.03905603    -1.31100
O799        O  0.47700999  0.61269672  0.55680021    -0.86500
O800        O  0.48577764  0.44385490  0.55145975    -0.86700
O801        O  0.42987794  0.52509279  0.58700690    -0.88400
O802        O  0.52880205  0.53152728  0.59134917    -0.87100
O803        O  0.56679261  0.53356242  0.55646311    -0.86700
O804        O  0.39377194  0.52660442  0.54982242    -0.88100
O805        O  0.48333889  0.47934781  0.58818465    -0.86600
O806        O  0.47643052  0.57480360  0.59063985    -0.86200
Zr807      Zr  0.48022210  0.52756851  0.56470350     2.84300
O808        O  0.51249617  0.49935194  0.53474635    -1.08100
O809        O  0.44925771  0.55782277  0.53535851    -1.08900
C810        C  0.47568913  0.60265100  0.58380797     1.06600
C811        C  0.48594560  0.45231320  0.57939217     1.06500
C812        C  0.40209296  0.52599267  0.57766593     1.09500
C813        C  0.55701095  0.53394810  0.58378855     1.07300
H814        H  0.43820730  0.48454704  0.54449216     0.32800
O815        O  0.45084417  0.49766263  0.53268178    -1.29100
H816        H  0.52252992  0.57242590  0.55073175     0.32500
O817        O  0.51076927  0.55998183  0.53729973    -1.30800
O818        O  0.48291485  0.44841216  0.45139200    -0.86500
O819        O  0.48217008  0.61682509  0.46049874    -0.88000
O820        O  0.39663451  0.47995513  0.49981844    -0.86600
O821        O  0.56910975  0.48445080  0.50418917    -0.86700
O822        O  0.56650488  0.58138611  0.50915620    -0.86400
O823        O  0.39451536  0.57584139  0.50514401    -0.86200
O824        O  0.43456787  0.53485463  0.41756117    -0.86600
O825        O  0.53364091  0.53733026  0.42142733    -0.86000
O826        O  0.39730654  0.53009609  0.45280861    -0.87100
O827        O  0.56896497  0.53655338  0.45941631    -0.86200
O828        O  0.43322923  0.44399799  0.50074062    -0.86600
O829        O  0.42991554  0.61315014  0.50854051    -0.86400
O830        O  0.52840085  0.61564441  0.51096925    -0.86000
O831        O  0.53337083  0.44719579  0.50055626    -0.86400
O832        O  0.48353947  0.48644227  0.41750184    -0.86700
O833        O  0.48408603  0.58358029  0.42197775    -0.88100
Zr834      Zr  0.48296995  0.46965116  0.50224545     2.83100
Zr835      Zr  0.47983703  0.58996902  0.50754211     2.83500
Zr836      Zr  0.42073432  0.52842407  0.50241667     2.84100
Zr837      Zr  0.54284361  0.53206920  0.50691454     2.83400
Zr838      Zr  0.48331168  0.53364301  0.44414291     2.84200
O839        O  0.51244464  0.56272709  0.47701320    -1.08600
O840        O  0.45293672  0.50073791  0.47200320    -1.08100
C841        C  0.48319696  0.45851039  0.42418376     1.06500
C842        C  0.48357452  0.61037256  0.43230542     1.09200
C843        C  0.40519984  0.45265238  0.49983691     1.06700
C844        C  0.56114538  0.45689279  0.50145525     1.07100
C845        C  0.55662853  0.60831347  0.51044894     1.06700
C846        C  0.40219349  0.60341580  0.50778670     1.06200
C847        C  0.40640730  0.53301401  0.42539892     1.06600
C848        C  0.56126287  0.53835676  0.43155053     1.06100
H849        H  0.43805799  0.57393128  0.46222476     0.32800
O850        O  0.45068833  0.56121683  0.47439980    -1.29700
H851        H  0.52675776  0.49145504  0.46128272     0.32800
O852        O  0.51349857  0.50262171  0.47418488    -1.31100
C853        C  0.35146057  0.38763003  0.51684578    -0.05800
C854        C  0.32630613  0.39490185  0.49868190     0.00100
C855        C  0.32808708  0.42035970  0.47989494    -0.08500
C856        C  0.35528351  0.43699241  0.47959841    -0.05900
C857        C  0.38008974  0.43030018  0.49838903     0.00100
C858        C  0.37814327  0.40525172  0.51758540    -0.08400
C859        C  0.40311124  0.39815220  0.54008101     0.62000
H860        H  0.34965731  0.36828073  0.53116294     0.12700
H861        H  0.35705831  0.45629261  0.46519628     0.12700
C862        C  0.30099673  0.43152617  0.46180229     0.62200
F863        F  0.39527992  0.37447473  0.55835942    -0.22900
F864        F  0.40849811  0.42250636  0.55831336    -0.20300
F865        F  0.42947986  0.39088690  0.52513745    -0.20000
F866        F  0.27581570  0.43348735  0.48012577    -0.20000
F867        F  0.29465134  0.41270763  0.43810047    -0.20300
F868        F  0.30642409  0.45941982  0.44982816    -0.23000
C869        C  0.32579754  0.64102063  0.52116933    -0.05800
C870        C  0.33094241  0.66874243  0.50791384     0.00100
C871        C  0.36031192  0.67623197  0.49743271    -0.08500
C872        C  0.38293178  0.65430138  0.49781910    -0.05900
C873        C  0.37738870  0.62571988  0.50951444     0.00100
C874        C  0.34871469  0.61954206  0.52297108    -0.08400
C875        C  0.34230421  0.59109461  0.54024190     0.62000
H876        H  0.30330840  0.63613821  0.52975266     0.12700
H877        H  0.40512766  0.65934150  0.48864185     0.12700
C878        C  0.36800366  0.70757567  0.48724573     0.62200
F879        F  0.31581035  0.59292134  0.55677381    -0.22900
F880        F  0.36584451  0.58571377  0.56019487    -0.20300
F881        F  0.33911437  0.56753092  0.52057800    -0.20000
F882        F  0.36073149  0.72738048  0.50977542    -0.20000
F883        F  0.35187538  0.71468537  0.46156113    -0.20300
F884        F  0.39863853  0.71092619  0.48101992    -0.23000
C885        C  0.63543045  0.41714895  0.48434266    -0.05800
C886        C  0.63226244  0.39132138  0.50174389     0.00100
C887        C  0.60423804  0.38564289  0.51640419    -0.08500
C888        C  0.58168385  0.40767159  0.51565888    -0.05900
C889        C  0.58567485  0.43439968  0.49980421     0.00100
C890        C  0.61237336  0.43850085  0.48243794    -0.08400
C891        C  0.61648802  0.46470002  0.46128922     0.62000
H892        H  0.65661655  0.42083054  0.47259078     0.12700
H893        H  0.56076983  0.40430131  0.52797424     0.12700
C894        C  0.59733129  0.35613280  0.53154479     0.62200
F895        F  0.64080085  0.46067894  0.44210020    -0.22900
F896        F  0.62189201  0.49027096  0.47762685    -0.20300
F897        F  0.59068932  0.46817141  0.44373743    -0.20000
F898        F  0.61296024  0.35389381  0.55841396    -0.20000
F899        F  0.60550837  0.33303015  0.51290305    -0.20300
F900        F  0.56663552  0.35299978  0.53766792    -0.23000
C901        C  0.59826068  0.68186159  0.49872830    -0.05800
C902        C  0.62468364  0.67738308  0.51575301     0.00100
C903        C  0.62902150  0.65014703  0.53089030    -0.08500
C904        C  0.60608317  0.62825795  0.52879621    -0.05900
C905        C  0.57944530  0.63272035  0.51178175     0.00100
C906        C  0.57557011  0.65994989  0.49609220    -0.08400
C907        C  0.54852279  0.66568024  0.47545978     0.62000
H908        H  0.59579464  0.70282459  0.48709733     0.12700
H909        H  0.60878173  0.60739202  0.54053360     0.12700
C910        C  0.65808859  0.64390046  0.54826871     0.62200
F911        F  0.55221192  0.69145445  0.45890403    -0.22900
F912        F  0.52232105  0.66861754  0.49216177    -0.20300
F913        F  0.54514080  0.64248110  0.45537634    -0.20000
F914        F  0.66048242  0.66273558  0.57266014    -0.20000
F915        F  0.68294103  0.64813937  0.52980994    -0.20300
F916        F  0.65881724  0.61504711  0.55888195    -0.23000
C917        C  0.36127699  0.53020947  0.35115735    -0.05800
C918        C  0.33238029  0.53814135  0.36121551     0.00100
C919        C  0.32803302  0.54522754  0.39177031    -0.08500
C920        C  0.35304608  0.54395567  0.41142439    -0.05900
C921        C  0.38212812  0.53521395  0.40182008     0.00100
C922        C  0.38637685  0.52834534  0.37084418    -0.08400
C923        C  0.41651444  0.51783513  0.35839800     0.62000
H924        H  0.36370705  0.52464331  0.32762712     0.12700
H925        H  0.34983033  0.54975904  0.43477378     0.12700
C926        C  0.29705556  0.55376566  0.40368744     0.62200
F927        F  0.41422954  0.50967289  0.32846777    -0.22900
F928        F  0.42627066  0.49338283  0.37438979    -0.20300
F929        F  0.43793974  0.54032340  0.36035473    -0.20000
F930        F  0.29728607  0.55734753  0.43458776    -0.20000
F931        F  0.27582867  0.53200693  0.39669404    -0.20300
F932        F  0.28836878  0.58029879  0.39092494    -0.23000
C933        C  0.47624691  0.66424608  0.42296315    -0.05800
C934        C  0.48396646  0.63627981  0.41100225     0.00100
C935        C  0.49214658  0.63467090  0.38005737    -0.08500
C936        C  0.49111117  0.66074998  0.36253996    -0.05900
C937        C  0.48295284  0.68820629  0.37469477     0.00100
C938        C  0.47612264  0.69023981  0.40557668    -0.08400
C939        C  0.46947212  0.71980360  0.42038692     0.62000
H940        H  0.47008856  0.66586083  0.44638967     0.12700
H941        H  0.49672917  0.66003129  0.33889651     0.12700
C942        C  0.50259017  0.60617289  0.36525418     0.62200
F943        F  0.46662616  0.71719807  0.45125690    -0.22900
F944        F  0.44259715  0.73102890  0.40921439    -0.20300
F945        F  0.49290613  0.73962753  0.41470372    -0.20000
F946        F  0.47925309  0.58550094  0.36519397    -0.20000
F947        F  0.52748708  0.59508429  0.38057317    -0.20300
F948        F  0.51107798  0.61059569  0.33566585    -0.23000
C949        C  0.58287118  0.52511189  0.38234764    -0.05800
C950        C  0.58614510  0.54081897  0.40940780     0.00100
C951        C  0.61293354  0.55800292  0.41459320    -0.08500
C952        C  0.63619870  0.55711988  0.39316558    -0.05900
C953        C  0.63325854  0.54066440  0.36653807     0.00100
C954        C  0.60555148  0.52544664  0.36031965    -0.08400
C955        C  0.59887574  0.50916262  0.33110157     0.62000
H956        H  0.56229044  0.51225120  0.37837804     0.12700
H957        H  0.65746864  0.56865185  0.39754237     0.12700
C958        C  0.61705275  0.57777190  0.44206685     0.62200
F959        F  0.56897600  0.51366752  0.32247449    -0.22900
F960        F  0.60317314  0.47909932  0.33532101    -0.20300
F961        F  0.61701481  0.51895479  0.30779174    -0.20000
F962        F  0.62061977  0.56071628  0.46763422    -0.20000
F963        F  0.59201953  0.59584852  0.44513818    -0.20300
F964        F  0.64249234  0.59591845  0.43970800    -0.23000
C965        C  0.48323526  0.44947972  0.36886765    -0.05800
C966        C  0.48321903  0.43710941  0.39807116     0.00100
C967        C  0.48345306  0.40546594  0.40075465    -0.08500
C968        C  0.48368295  0.38807682  0.37430279    -0.05900
C969        C  0.48395558  0.40087769  0.34563952     0.00100
C970        C  0.48353620  0.43200693  0.34275881    -0.08400
C971        C  0.48365082  0.44670745  0.31206773     0.62000
H972        H  0.48324026  0.47331390  0.36629317     0.12700
H973        H  0.48378703  0.36410058  0.37567078     0.12700
C974        C  0.48383562  0.38959841  0.43091782     0.62200
F975        F  0.48245430  0.47731408  0.31402439    -0.22900
F976        F  0.45880046  0.43709653  0.29543821    -0.20300
F977        F  0.50999565  0.43943244  0.29720037    -0.20000
F978        F  0.45808557  0.39662661  0.44704674    -0.20000
F979        F  0.50963285  0.39774133  0.44694017    -0.20300
F980        F  0.48423490  0.35906001  0.42770835    -0.23000
C981        C  0.59768897  0.55443213  0.65719037    -0.05800
C982        C  0.62543506  0.53991504  0.65339485     0.00100
C983        C  0.63194484  0.52644495  0.62545627    -0.08500
C984        C  0.60873975  0.52438057  0.60376264    -0.05900
C985        C  0.58013850  0.53734052  0.60811258     0.00100
C986        C  0.57510817  0.55412887  0.63469539    -0.08400
C987        C  0.54653208  0.57215729  0.63941355     0.62000
H988        H  0.59337070  0.56516384  0.67849843     0.12700
H989        H  0.61315321  0.51256775  0.58304934     0.12700
C990        C  0.66291882  0.51412025  0.61755563     0.62200
F991        F  0.54902385  0.59057853  0.66422576    -0.22900
F992        F  0.52200832  0.55338583  0.64394754    -0.20300
F993        F  0.54129915  0.58987498  0.61456762    -0.20000
F994        F  0.66193928  0.48351609  0.61922157    -0.24200
F995        F  0.68574726  0.52469238  0.63629943    -0.20300
F996        F  0.67046834  0.52232263  0.58855840    -0.23000
C997        C  0.50287674  0.41532050  0.65479598    -0.05800
C998        C  0.48510954  0.38945285  0.65281666     0.00100
C999        C  0.47089577  0.38219814  0.62501488    -0.08500
C1000       C  0.47260396  0.40273598  0.60105217    -0.05900
C1001       C  0.48864541  0.42970202  0.60379895     0.00100
C1002       C  0.50556749  0.43528080  0.63065847    -0.08400
C1003       C  0.52732911  0.46154356  0.63387705     0.62000
H1004       H  0.51442594  0.42004470  0.67584750     0.12700
H1005       H  0.46067697  0.39818579  0.58021326     0.12700
C1006       C  0.45487073  0.35260926  0.62025684     0.62200
F1007       F  0.51128687  0.48747247  0.63764897    -0.22900
F1008       F  0.54540579  0.46376699  0.60862703    -0.20300
F1009       F  0.54642488  0.45843830  0.65851968    -0.20000
F1010       F  0.42842821  0.35136570  0.63678355    -0.20000
F1011       F  0.47377409  0.32979758  0.62907180    -0.20300
F1012       F  0.44725477  0.34815012  0.59036431    -0.23000
C1013       C  0.35653902  0.54353133  0.64770689    -0.05800
C1014       C  0.32877684  0.52983719  0.64082806     0.00100
C1015       C  0.32497668  0.51417259  0.61354172    -0.08500
C1016       C  0.34977920  0.51284097  0.59379075    -0.05900
C1017       C  0.37775809  0.52685374  0.60053295     0.00100
C1018       C  0.38106080  0.54291003  0.62789131    -0.08400
C1019       C  0.40934217  0.56101162  0.63566859     0.62000
H1020       H  0.35869734  0.55506621  0.66894680     0.12700
H1021       H  0.34746936  0.50077410  0.57285260     0.12700
C1022       C  0.29484939  0.49953061  0.60509178     0.62200
F1023       F  0.40563248  0.57777706  0.66143264    -0.22900
F1024       F  0.41558466  0.58035226  0.61237878    -0.20300
F1025       F  0.43378559  0.54251664  0.64058644    -0.20000
F1026       F  0.27136040  0.51942387  0.60861265    -0.20000
F1027       F  0.28964469  0.47511566  0.62316872    -0.20300
F1028       F  0.29454760  0.49003576  0.57552028    -0.23000
C1029       C  0.46871703  0.67286339  0.63233090    -0.05800
C1030       C  0.47102075  0.66031091  0.66093859     0.00100
C1031       C  0.47419733  0.62951743  0.66439473    -0.08500
C1032       C  0.47508296  0.61193402  0.63860308    -0.05900
C1033       C  0.47347064  0.62404033  0.60938436     0.00100
C1034       C  0.46977349  0.65538674  0.60617090    -0.08400
C1035       C  0.46668528  0.67087563  0.57591384     0.62000
H1036       H  0.46651835  0.69672778  0.63081047     0.12700
H1037       H  0.47721086  0.58828092  0.64143681     0.12700
C1038       C  0.47677330  0.61536663  0.69529086     0.62200
F1039       F  0.46185357  0.70104077  0.57900375    -0.22900
F1040       F  0.44211763  0.65919633  0.56023824    -0.20300
F1041       F  0.49302033  0.66746689  0.55948013    -0.20000
F1042       F  0.45086266  0.62116846  0.71156875    -0.20000
F1043       F  0.50177588  0.62682054  0.71042968    -0.20300
F1044       F  0.48004056  0.58490188  0.69364620    -0.23000
C1045       C  0.66750738  0.78354422  0.61155152    -0.05800
C1046       C  0.69695684  0.77949964  0.62280630     0.00100
C1047       C  0.72000183  0.76837424  0.60403168    -0.08500
C1048       C  0.71209063  0.75923011  0.57490796    -0.05900
C1049       C  0.68199238  0.76079233  0.56453462     0.00100
C1050       C  0.65974539  0.77505252  0.58217021    -0.08400
C1051       C  0.62769944  0.78138971  0.57128206     0.62000
H1052       H  0.65019937  0.79252291  0.62614436     0.12700
H1053       H  0.72885933  0.74865847  0.56085377     0.12700
C1054       C  0.75228189  0.76444042  0.61547054     0.62200
F1055       F  0.62102147  0.81082562  0.57675525    -0.22900
F1056       F  0.60733865  0.76368392  0.58679680    -0.20300
F1057       F  0.62389300  0.77650149  0.54081830    -0.20000
F1058       F  0.75262105  0.74372972  0.63837405    -0.20000
F1059       F  0.76338924  0.79117146  0.62623184    -0.20300
F1060       F  0.77156110  0.75487323  0.59305608    -0.23000
C1061       C  0.67443113  0.62954565  0.76655246    -0.05800
C1062       C  0.70186383  0.64181943  0.75629351     0.00100
C1063       C  0.72187676  0.62423197  0.73913688    -0.08500
C1064       C  0.71261397  0.59544724  0.73076476    -0.05900
C1065       C  0.68396651  0.58422182  0.73868920     0.00100
C1066       C  0.66500001  0.60085600  0.75782311    -0.08400
C1067       C  0.63454446  0.58860017  0.76800382     0.62000
H1068       H  0.65955500  0.64332477  0.77979266     0.12700
H1069       H  0.72680565  0.58221650  0.71625349     0.12700
C1070       C  0.75237797  0.63632675  0.72883488     0.62200
F1071       F  0.62069467  0.60721968  0.78839762    -0.22900
F1072       F  0.63865429  0.56136392  0.78167600    -0.20300
F1073       F  0.61530031  0.58514550  0.74356236    -0.20000
F1074       F  0.76874226  0.64667959  0.75336253    -0.20000
F1075       F  0.74800526  0.65931309  0.70876349    -0.20300
F1076       F  0.76948950  0.61481432  0.71476647    -0.23000
C1077       C  0.57160176  0.75994135  0.72505462    -0.05800
C1078       C  0.59288980  0.73992082  0.73660859     0.00100
C1079       C  0.58360957  0.71114940  0.74555126    -0.08500
C1080       C  0.55300025  0.70300905  0.74176095    -0.05900
C1081       C  0.53187795  0.72270179  0.72940050     0.00100
C1082       C  0.54103319  0.75163768  0.72085049    -0.08400
C1083       C  0.51884981  0.77321555  0.70660198     0.62000
H1084       H  0.57930063  0.78199496  0.71890135     0.12700
H1085       H  0.54539698  0.68081953  0.74753651     0.12700
C1086       C  0.60584608  0.68930732  0.75923546     0.62200
F1087       F  0.53308642  0.79932208  0.69794008    -0.22900
F1088       F  0.49640782  0.78022973  0.72694156    -0.20300
F1089       F  0.50559824  0.76061172  0.68134060    -0.20000
F1090       F  0.62029799  0.70204424  0.78377917    -0.20000
F1091       F  0.62729809  0.68153034  0.73814844    -0.20300
F1092       F  0.59139443  0.66364012  0.76883700    -0.23000
C1093       C  0.72299811  0.35190002  0.61676641    -0.05800
C1094       C  0.73106455  0.32221845  0.62155360     0.00100
C1095       C  0.73254405  0.30271285  0.59670492    -0.08500
C1096       C  0.72352282  0.31317897  0.56818274    -0.05900
C1097       C  0.71424903  0.34267102  0.56354427     0.00100
C1098       C  0.71593717  0.36288747  0.58803840    -0.08400
C1099       C  0.71067444  0.39604055  0.58512181     0.62000
H1100       H  0.72216418  0.36674779  0.63591154     0.12700
H1101       H  0.72253619  0.29794238  0.54940990     0.12700
C1102       C  0.74239984  0.27075462  0.60043164     0.62200
F1103       F  0.73074346  0.41144126  0.60356302    -0.22900
F1104       F  0.68138320  0.40263587  0.59389519    -0.20300
F1105       F  0.71534424  0.40601846  0.55611855    -0.20000
F1106       F  0.72420802  0.25656144  0.62130204    -0.20000
F1107       F  0.77232351  0.27013120  0.61007365    -0.20300
F1108       F  0.74038302  0.25511818  0.57370790    -0.23000
C1109       C  0.57949776  0.29862309  0.73365179    -0.05800
C1110       C  0.59337805  0.31399300  0.75753251     0.00100
C1111       C  0.57714060  0.33669387  0.77242265    -0.08500
C1112       C  0.54882003  0.34522332  0.76044433    -0.05900
C1113       C  0.53670877  0.33188424  0.73445485     0.00100
C1114       C  0.55125160  0.30700872  0.72191900    -0.08400
C1115       C  0.53723593  0.28949777  0.69613097     0.62000
H1116       H  0.59191822  0.28083226  0.72304960     0.12700
H1117       H  0.53653882  0.36325191  0.77081432     0.12700
C1118       C  0.58811602  0.35274554  0.80045410     0.62200
F1119       F  0.55304787  0.26366795  0.69053956    -0.22900
F1120       F  0.53740237  0.30638294  0.67023249    -0.20300
F1121       F  0.50764114  0.28166728  0.70303275    -0.20000
F1122       F  0.61723860  0.34519460  0.80899373    -0.20000
F1123       F  0.56872609  0.34594804  0.82387534    -0.20300
F1124       F  0.58748423  0.38304838  0.79567223    -0.23000
C1125       C  0.65830083  0.45246752  0.72881552    -0.05800
C1126       C  0.68137138  0.47334925  0.72287395     0.00100
C1127       C  0.71190736  0.46381412  0.72060300    -0.08500
C1128       C  0.71837940  0.43370153  0.72566764    -0.05900
C1129       C  0.69529569  0.41283392  0.73143496     0.00100
C1130       C  0.66463554  0.42218344  0.73274039    -0.08400
C1131       C  0.63871080  0.40044238  0.73836898     0.62000
H1132       H  0.63501751  0.46007725  0.72951405     0.12700
H1133       H  0.74162291  0.42602862  0.72461239     0.12700
C1134       C  0.73742406  0.48496290  0.71180248     0.62200
F1135       F  0.61148278  0.41481842  0.74320989    -0.22900
F1136       F  0.64502543  0.38345676  0.76346930    -0.20300
F1137       F  0.63493514  0.38209404  0.71371533    -0.20000
F1138       F  0.74280750  0.50503926  0.73468505    -0.20000
F1139       F  0.72965288  0.50010252  0.68586761    -0.20300
F1140       F  0.76425931  0.47010498  0.70639425    -0.23000
C1141       C  0.22780498  0.72003479  0.60490279    -0.05800
C1142       C  0.22892607  0.75064997  0.61022786     0.00100
C1143       C  0.23690844  0.77022843  0.58667962    -0.08500
C1144       C  0.24637832  0.75814372  0.55910262    -0.05900
C1145       C  0.24770841  0.72732386  0.55465744     0.00100
C1146       C  0.23640026  0.70795157  0.57715750    -0.08400
C1147       C  0.23258443  0.67483736  0.57173223     0.62000
H1148       H  0.22115903  0.70551384  0.62317045     0.12700
H1149       H  0.25441017  0.77262992  0.54137241     0.12700
C1150       C  0.23703261  0.80353766  0.59130064     0.62200
F1151       F  0.21710228  0.66112905  0.59497835    -0.22900
F1152       F  0.26049976  0.66133180  0.56926940    -0.20300
F1153       F  0.21611574  0.67026405  0.54554962    -0.20000
F1154       F  0.25892733  0.81124211  0.61238822    -0.20000
F1155       F  0.20885911  0.81247386  0.60130972    -0.20300
F1156       F  0.24319008  0.81864658  0.56491203    -0.23000
C1157       C  0.36796953  0.71335159  0.75910954    -0.05800
C1158       C  0.36167347  0.74297678  0.75234298     0.00100
C1159       C  0.38457948  0.76170206  0.74044961    -0.08500
C1160       C  0.41307409  0.74952586  0.73431043    -0.05900
C1161       C  0.41874773  0.71934810  0.73899940     0.00100
C1162       C  0.39641995  0.70106746  0.75267798    -0.08400
C1163       C  0.40230357  0.66876802  0.76006717     0.62000
H1164       H  0.34984913  0.69948227  0.76790223     0.12700
H1165       H  0.43065459  0.76308382  0.72410844     0.12700
C1166       C  0.37857371  0.79406090  0.73327711     0.62200
F1167       F  0.38001123  0.65711571  0.77857357    -0.22900
F1168       F  0.42994263  0.66613190  0.77475975    -0.20300
F1169       F  0.40263923  0.65215630  0.73403219    -0.20000
F1170       F  0.36998763  0.80867907  0.75913421    -0.20000
F1171       F  0.35562880  0.79620303  0.71205319    -0.20300
F1172       F  0.40410256  0.80823142  0.72192929    -0.23000
C1173       C  0.27896545  0.64448052  0.72337197    -0.05800
C1174       C  0.24893592  0.65357364  0.71864634     0.00100
C1175       C  0.22693138  0.63307061  0.70767575    -0.08500
C1176       C  0.23629916  0.60413182  0.70064299    -0.05900
C1177       C  0.26652128  0.59531141  0.70484442     0.00100
C1178       C  0.28810063  0.61540305  0.71724959    -0.08400
C1179       C  0.32031906  0.60600009  0.72497037     0.62000
H1180       H  0.29525681  0.66046194  0.73217925     0.12700
H1181       H  0.22018205  0.58815753  0.69154708     0.12700
C1182       C  0.19402481  0.64182165  0.70278657     0.62200
F1183       F  0.33622335  0.62813699  0.73997374    -0.22900
F1184       F  0.33612875  0.59944091  0.69915784    -0.20300
F1185       F  0.31945941  0.58126705  0.74334375    -0.20000
F1186       F  0.19259093  0.66657241  0.68447712    -0.20000
F1187       F  0.18078301  0.64806798  0.73012705    -0.20300
F1188       F  0.17723130  0.61933677  0.68928402    -0.23000
C1189       C  0.22062202  0.35361228  0.60878407    -0.05800
C1190       C  0.23008538  0.32620068  0.62023710     0.00100
C1191       C  0.24702772  0.30677126  0.60193753    -0.08500
C1192       C  0.25546221  0.31621674  0.57307609    -0.05900
C1193       C  0.24741351  0.34424768  0.56220327     0.00100
C1194       C  0.22872599  0.36284138  0.57963283    -0.08400
C1195       C  0.21748896  0.39212856  0.56732251     0.62000
H1196       H  0.20772785  0.36812562  0.62321818     0.12700
H1197       H  0.26918221  0.30210138  0.55898459     0.12700
C1198       C  0.25681177  0.27652714  0.61322822     0.62200
F1199       F  0.19739300  0.40560073  0.58674901    -0.22900
F1200       F  0.20260445  0.38740960  0.54025199    -0.20300
F1201       F  0.24181674  0.41118508  0.56282036    -0.20000
F1202       F  0.23157016  0.26048867  0.62237789    -0.20000
F1203       F  0.27670014  0.27986291  0.63717157    -0.20300
F1204       F  0.27131788  0.26036913  0.59117072    -0.23000
C1205       C  0.27270478  0.43966401  0.74590042    -0.05800
C1206       C  0.24569862  0.42763642  0.73413668     0.00100
C1207       C  0.22656796  0.44483879  0.71560816    -0.08500
C1208       C  0.23590566  0.47375074  0.70836836    -0.05900
C1209       C  0.26384073  0.48512546  0.71859558     0.00100
C1210       C  0.28239171  0.46830517  0.73814119    -0.08400
C1211       C  0.31279641  0.48001190  0.74958837     0.62000
H1212       H  0.28685257  0.42584991  0.76006276     0.12700
H1213       H  0.22240794  0.48707957  0.69314035     0.12700
C1214       C  0.19735253  0.43211402  0.70243681     0.62200
F1215       F  0.32497598  0.46179703  0.77154511    -0.22900
F1216       F  0.30919990  0.50792275  0.76185774    -0.20300
F1217       F  0.33328286  0.48170615  0.72621172    -0.20000
F1218       F  0.17743894  0.42533398  0.72537905    -0.20000
F1219       F  0.20349993  0.40662914  0.68633444    -0.20300
F1220       F  0.18321829  0.45194489  0.68327235    -0.23000
C1221       C  0.38358580  0.30940909  0.75075943    -0.05800
C1222       C  0.36446592  0.33324674  0.75688245     0.00100
C1223       C  0.37544978  0.36266760  0.75390912    -0.08500
C1224       C  0.40546128  0.36725433  0.74406025    -0.05900
C1225       C  0.42419651  0.34338681  0.73638674     0.00100
C1226       C  0.41324686  0.31384259  0.73999019    -0.08400
C1227       C  0.43180629  0.28701042  0.73090146     0.62000
H1228       H  0.37436383  0.28714850  0.75283669     0.12700
H1229       H  0.41416793  0.38959824  0.74106611     0.12700
C1230       C  0.35525156  0.38898529  0.76040966     0.62200
F1231       F  0.41442556  0.26126638  0.73065124    -0.22900
F1232       F  0.45542588  0.28292526  0.75102130    -0.20300
F1233       F  0.44333292  0.29094755  0.70232223    -0.20000
F1234       F  0.34245169  0.38587888  0.78855960    -0.20000
F1235       F  0.33235578  0.39055279  0.73907461    -0.20300
F1236       F  0.37141699  0.41545877  0.75988282    -0.23000
C1237       C  0.10723159  0.13265543  0.99080789    -0.05800
C1238       C  0.08080030  0.13890607  0.00731439     0.00100
C1239       C  0.07932893  0.16617592  0.02317257    -0.08500
C1240       C  0.10367311  0.18668384  0.02060098    -0.05900
C1241       C  0.12991599  0.18036035  0.00396088     0.00100
C1242       C  0.13220741  0.15239102  0.98961785    -0.08400
C1243       C  0.16158608  0.14235834  0.97499327     0.62000
H1244       H  0.10848714  0.11160775  0.97918761     0.12700
H1245       H  0.10273156  0.20777060  0.03218670     0.12700
C1246       C  0.05324651  0.17295823  0.04416808     0.62200
F1247       F  0.16012960  0.11287840  0.96636140    -0.22900
F1248       F  0.18545996  0.14546830  0.99516229    -0.20300
F1249       F  0.16758596  0.15899397  0.94964205    -0.20000
F1250       F  0.04950407  0.14984955  0.06431144    -0.20000
F1251       F  0.02673550  0.17674798  0.02784270    -0.20300
F1252       F  0.05859391  0.19858560  0.06055617    -0.23000
C1253       C  0.19968789  0.27499529  0.90383370    -0.05800
C1254       C  0.22536768  0.26120000  0.89177065     0.00100
C1255       C  0.24210572  0.24106952  0.90961071    -0.08500
C1256       C  0.23111711  0.23373452  0.93843667    -0.05900
C1257       C  0.20433203  0.24625453  0.94972607     0.00100
C1258       C  0.18918364  0.26833082  0.93285561    -0.08400
C1259       C  0.16251960  0.28522700  0.94570832     0.62000
H1260       H  0.18744030  0.29063569  0.88990180     0.12700
H1261       H  0.24273924  0.21735850  0.95199235     0.12700
C1262       C  0.27063056  0.22666014  0.89770498     0.62200
F1263       F  0.15218103  0.30680070  0.92609049    -0.22900
F1264       F  0.17148442  0.29904112  0.97208666    -0.20300
F1265       F  0.13856224  0.26614877  0.95161005    -0.20000
F1266       F  0.29204596  0.24832448  0.89122450    -0.20000
F1267       F  0.26386547  0.21084898  0.87185134    -0.20300
F1268       F  0.28327902  0.20737572  0.91840579    -0.23000
C1269       C  0.67069868  0.75486411  0.43620107    -0.05800
C1270       C  0.69204809  0.74144890  0.45513091     0.00100
C1271       C  0.72176583  0.73579247  0.44487781    -0.08500
C1272       C  0.72900491  0.74330006  0.41513289    -0.05900
C1273       C  0.70733397  0.75594971  0.39589077     0.00100
C1274       C  0.67787399  0.76248870  0.40657242    -0.08400
C1275       C  0.65454688  0.77841570  0.38727229     0.62000
H1276       H  0.64819508  0.75911073  0.44490923     0.12700
H1277       H  0.75148154  0.73888816  0.40645797     0.12700
C1278       C  0.74537477  0.72159192  0.46513667     0.62200
F1279       F  0.62812235  0.78414625  0.40293576    -0.22900
F1280       F  0.64675869  0.76134897  0.36258531    -0.20300
F1281       F  0.66659979  0.80521730  0.37776005    -0.20000
F1282       F  0.73424004  0.69507203  0.47638148    -0.20000
F1283       F  0.75222329  0.74043684  0.48876063    -0.20300
F1284       F  0.77202489  0.71576785  0.44990954    -0.23000
C1285       C  0.58622042  0.75004270  0.28034433    -0.05800
C1286       C  0.59893927  0.77681246  0.29106955     0.00100
C1287       C  0.58086111  0.79556070  0.30913038    -0.08500
C1288       C  0.55131168  0.78598169  0.31717955    -0.05900
C1289       C  0.53964019  0.75829910  0.30810058     0.00100
C1290       C  0.55686397  0.74043038  0.28847995    -0.08400
C1291       C  0.54450144  0.71113553  0.27645395     0.62000
H1292       H  0.60012253  0.73595255  0.26640255     0.12700
H1293       H  0.53753142  0.79944505  0.33183791     0.12700
C1294       C  0.59326598  0.82460415  0.32134208     0.62200
F1295       F  0.56271408  0.69981372  0.25400631    -0.22900
F1296       F  0.51570618  0.71511347  0.26452902    -0.20300
F1297       F  0.54305162  0.69043654  0.29931267    -0.20000
F1298       F  0.60071257  0.84328961  0.29784053    -0.20000
F1299       F  0.61887222  0.81929200  0.33855376    -0.20300
F1300       F  0.57232013  0.83893150  0.33919778    -0.23000
C1301       C  0.73605141  0.64010228  0.32861118    -0.05800
C1302       C  0.73890604  0.64727832  0.29811130     0.00100
C1303       C  0.73448381  0.62482935  0.27620202    -0.08500
C1304       C  0.72618458  0.59602470  0.28566101    -0.05900
C1305       C  0.72155629  0.58930500  0.31611402     0.00100
C1306       C  0.72827379  0.61131678  0.33812257    -0.08400
C1307       C  0.72678164  0.60592871  0.37178865     0.62000
H1308       H  0.73930820  0.65743788  0.34524907     0.12700
H1309       H  0.72105174  0.57905639  0.26914317     0.12700
C1310       C  0.73619704  0.63185185  0.24292329     0.62200
F1311       F  0.75256870  0.61758744  0.38546465    -0.22900
F1312       F  0.72534653  0.57614496  0.37907356    -0.20300
F1313       F  0.70157079  0.61998981  0.38331734    -0.20000
F1314       F  0.76548534  0.64047492  0.23574539    -0.20000
F1315       F  0.71633254  0.65447583  0.23592467    -0.20300
F1316       F  0.72847360  0.60759071  0.22534709    -0.23000
C1317       C  0.73942453  0.34747928  0.40264724    -0.05800
C1318       C  0.73337209  0.31834221  0.39338815     0.00100
C1319       C  0.71982089  0.29789202  0.41344026    -0.08500
C1320       C  0.71172188  0.30769046  0.44225755    -0.05900
C1321       C  0.71585555  0.33737466  0.45081835     0.00100
C1322       C  0.73075796  0.35747239  0.43123892    -0.08400
C1323       C  0.73677589  0.38943453  0.44027439     0.62000
H1324       H  0.74944428  0.36276670  0.38665803     0.12700
H1325       H  0.70027666  0.29275637  0.45763583     0.12700
C1326       C  0.71206130  0.26651849  0.40350903     0.62200
F1327       F  0.75393782  0.40437389  0.41904146    -0.22900
F1328       F  0.75251951  0.39022504  0.46725149    -0.20300
F1329       F  0.70958885  0.40420689  0.44344521    -0.20000
F1330       F  0.73787943  0.25273006  0.39302334    -0.20000
F1331       F  0.69050449  0.26734731  0.38077765    -0.20300
F1332       F  0.70044793  0.24964485  0.42681928    -0.23000
C1333       C  0.73041931  0.42985877  0.31903100    -0.05800
C1334       C  0.71545075  0.41863116  0.29347912     0.00100
C1335       C  0.69509194  0.43679315  0.27726055    -0.08500
C1336       C  0.69126364  0.46636041  0.28646681    -0.05900
C1337       C  0.70646096  0.47776485  0.31180283     0.00100
C1338       C  0.72574145  0.45917806  0.32887060    -0.08400
C1339       C  0.74035365  0.47015160  0.35779921     0.62000
H1340       H  0.74525795  0.41525111  0.33156239     0.12700
H1341       H  0.67568745  0.48064994  0.27444306     0.12700
C1342       C  0.67705701  0.42455738  0.25081022     0.62200
F1343       F  0.75849931  0.44877480  0.37093347    -0.22900
F1344       F  0.71802380  0.47768952  0.37811368    -0.20300
F1345       F  0.75823578  0.49482571  0.35197661    -0.20000
F1346       F  0.66069507  0.39978500  0.25971120    -0.20000
F1347       F  0.69670155  0.41669470  0.22809670    -0.20300
F1348       F  0.65671753  0.44505359  0.23949863    -0.23000
C1349       C  0.59208236  0.35916285  0.24898187    -0.05800
C1350       C  0.60015693  0.32919584  0.25063794     0.00100
C1351       C  0.57765325  0.30763420  0.25740927    -0.08500
C1352       C  0.54813621  0.31707701  0.26472932    -0.05900
C1353       C  0.54049488  0.34726091  0.26485106     0.00100
C1354       C  0.56222916  0.36848209  0.25488644    -0.08400
C1355       C  0.55507431  0.40105789  0.25059926     0.62000
H1356       H  0.60931487  0.37547676  0.24325987     0.12700
H1357       H  0.53115111  0.30103468  0.27176803     0.12700
C1358       C  0.58527818  0.27487131  0.25782858     0.62200
F1359       F  0.56736892  0.41101706  0.22385207    -0.22900
F1360       F  0.56772955  0.41719536  0.27400473    -0.20300
F1361       F  0.52416080  0.40624697  0.24925996    -0.20000
F1362       F  0.60900717  0.26970900  0.27760767    -0.20000
F1363       F  0.59372191  0.26608269  0.22933201    -0.20300
F1364       F  0.56075975  0.25758384  0.26663491    -0.23000
C1365       C  0.24865256  0.69906688  0.42196409    -0.05800
C1366       C  0.25762163  0.72151217  0.44216343     0.00100
C1367       C  0.26151608  0.75099469  0.43168480    -0.08500
C1368       C  0.25540376  0.75710709  0.40134873    -0.05900
C1369       C  0.24701288  0.73465620  0.38117046     0.00100
C1370       C  0.24346093  0.70511362  0.39134157    -0.08400
C1371       C  0.23377783  0.68035809  0.37007792     0.62000
H1372       H  0.24646635  0.67659163  0.43032598     0.12700
H1373       H  0.25794675  0.77950099  0.39283201     0.12700
C1374       C  0.27344056  0.77568857  0.45191078     0.62200
F1375       F  0.23020154  0.65358363  0.38492120    -0.22900
F1376       F  0.25547106  0.67657449  0.34809066    -0.20300
F1377       F  0.20633236  0.68740038  0.35663456    -0.20000
F1378       F  0.30017459  0.76703925  0.46575798    -0.20000
F1379       F  0.25212156  0.78229293  0.47350443    -0.20300
F1380       F  0.27951823  0.80139130  0.43591606    -0.23000
C1381       C  0.22062606  0.62479209  0.29588208    -0.05800
C1382       C  0.23409770  0.63682426  0.27013257     0.00100
C1383       C  0.25594247  0.62035064  0.25412581    -0.08500
C1384       C  0.26554073  0.59304986  0.26598696    -0.05900
C1385       C  0.25384448  0.58216720  0.29310347     0.00100
C1386       C  0.23015693  0.59744665  0.30767620    -0.08400
C1387       C  0.21612858  0.58549425  0.33629358     0.62000
H1388       H  0.20417788  0.63797353  0.30788331     0.12700
H1389       H  0.28313220  0.58055429  0.25486258     0.12700
C1390       C  0.26916140  0.63190562  0.22486271     0.62200
F1391       F  0.19176882  0.60239155  0.34549800    -0.22900
F1392       F  0.23762682  0.58561959  0.35899372    -0.20300
F1393       F  0.20584574  0.55677200  0.33174005    -0.20000
F1394       F  0.28398693  0.65865274  0.22949279    -0.20000
F1395       F  0.24593002  0.63597476  0.20422948    -0.20300
F1396       F  0.28982935  0.61235913  0.21270107    -0.23000
C1397       C  0.41694522  0.75926965  0.28379006    -0.05800
C1398       C  0.42530288  0.76292854  0.31406168     0.00100
C1399       C  0.40425339  0.77593384  0.33416995    -0.08500
C1400       C  0.37432872  0.78119578  0.32412250    -0.05900
C1401       C  0.36560617  0.77596715  0.29425758     0.00100
C1402       C  0.38751134  0.76613174  0.27341456    -0.08400
C1403       C  0.37948771  0.76238885  0.24043827     0.62000
H1404       H  0.43334275  0.74986611  0.26851531     0.12700
H1405       H  0.35760806  0.78946928  0.33977294     0.12700
C1406       C  0.41223433  0.78554893  0.36594133     0.62200
F1407       F  0.40464055  0.75524633  0.22345116    -0.22900
F1408       F  0.36777452  0.78860514  0.22937187    -0.20300
F1409       F  0.35808468  0.74002588  0.23703579    -0.20000
F1410       F  0.44275980  0.78269195  0.37276493    -0.20000
F1411       F  0.39546652  0.76897104  0.38616914    -0.20300
F1412       F  0.40497290  0.81514203  0.36937598    -0.23000
C1413       C  0.13431645  0.04272482  0.12825439    -0.05800
C1414       C  0.12854820  0.02581576  0.15401115     0.00100
C1415       C  0.09874325  0.01506609  0.15928911    -0.08500
C1416       C  0.07622288  0.01958289  0.13708271    -0.05900
C1417       C  0.08246503  0.03484008  0.11014524     0.00100
C1418       C  0.11170468  0.04824495  0.10658125    -0.08400
C1419       C  0.11925471  0.06933787  0.08094190     0.62000
H1420       H  0.15697330  0.05187804  0.12535851     0.12700
H1421       H  0.05360232  0.01072963  0.14052067     0.12700
C1422       C  0.09067165  0.99926277  0.18832350     0.62200
F1423       F  0.12449203  0.05345454  0.05497980    -0.22900
F1424       F  0.09562026  0.08890298  0.07627130    -0.20300
F1425       F  0.14507749  0.08609936  0.08715178    -0.20000
F1426       F  0.10022257  0.01597247  0.21272522    -0.20000
F1427       F  0.10464571  0.97194461  0.18923364    -0.20300
F1428       F  0.05962158  0.99478655  0.19090468    -0.23000
C1429       C  0.20161490  0.95402213  0.23681116    -0.05800
C1430       C  0.20830981  0.96713672  0.20903019     0.00100
C1431       C  0.22710826  0.95202389  0.18837847    -0.08500
C1432       C  0.23681064  0.92312431  0.19548016    -0.05900
C1433       C  0.22855213  0.90941835  0.22252256     0.00100
C1434       C  0.21125396  0.92516635  0.24383961    -0.08400
C1435       C  0.20171163  0.91079803  0.27318389     0.62000
H1436       H  0.18741963  0.96604358  0.25235652     0.12700
H1437       H  0.24990865  0.91052074  0.17946685     0.12700
C1438       C  0.23707779  0.96646111  0.15921049     0.62200
F1439       F  0.18702297  0.93054819  0.29182317    -0.22900
F1440       F  0.22704933  0.90037541  0.28826627    -0.20300
F1441       F  0.18206882  0.88739923  0.26736103    -0.20000
F1442       F  0.25278882  0.99243197  0.16553518    -0.20000
F1443       F  0.21209192  0.97287934  0.14149364    -0.20300
F1444       F  0.25596532  0.94820839  0.14283426    -0.23000
C1445       C  0.21782611  0.33507867  0.40424672    -0.05800
C1446       C  0.23149362  0.30906559  0.39392964     0.00100
C1447       C  0.25020139  0.29236178  0.41342448    -0.08500
C1448       C  0.25742851  0.30404934  0.44185750    -0.05900
C1449       C  0.24574157  0.33129023  0.45122194     0.00100
C1450       C  0.22424666  0.34626052  0.43310929    -0.08400
C1451       C  0.20858490  0.37398143  0.44424378     0.62000
H1452       H  0.20309247  0.34717224  0.38907612     0.12700
H1453       H  0.27321810  0.29263905  0.45652694     0.12700
C1454       C  0.26268451  0.26259676  0.40390545     0.62200
F1455       F  0.18789661  0.38468412  0.42342248    -0.22900
F1456       F  0.22983144  0.39602747  0.45001125    -0.20300
F1457       F  0.19303819  0.36753431  0.47039791    -0.20000
F1458       F  0.28210913  0.26625760  0.37987707    -0.20000
F1459       F  0.23890048  0.24406379  0.39549388    -0.20300
F1460       F  0.27855535  0.24899605  0.42699283    -0.23000
C1461       C  0.40476238  0.36316082  0.25998159    -0.05800
C1462       C  0.42599330  0.34191446  0.26939943     0.00100
C1463       C  0.41704978  0.31165995  0.27110664    -0.08500
C1464       C  0.38712335  0.30369139  0.26270948    -0.05900
C1465       C  0.36566203  0.32510818  0.25455350     0.00100
C1466       C  0.37439682  0.35533535  0.25332446    -0.08400
C1467       C  0.35131197  0.37922720  0.24636133     0.62000
H1468       H  0.41179679  0.38623833  0.25953654     0.12700
H1469       H  0.37961845  0.28080448  0.26432019     0.12700
C1470       C  0.43815832  0.28828751  0.28396468     0.62200
F1471       F  0.36485831  0.40691359  0.24362890    -0.22900
F1472       F  0.33024200  0.38057130  0.26925414    -0.20300
F1473       F  0.33647906  0.37274165  0.21964941    -0.20000
F1474       F  0.44802890  0.29683299  0.31226575    -0.20000
F1475       F  0.46298954  0.28476225  0.26550423    -0.20300
F1476       F  0.42379749  0.26098670  0.28664779    -0.23000
C1477       C  0.26295477  0.46408407  0.27328049    -0.05800
C1478       C  0.26233473  0.47188692  0.30379095     0.00100
C1479       C  0.25411703  0.45020973  0.32548517    -0.08500
C1480       C  0.24887612  0.42094230  0.31590017    -0.05900
C1481       C  0.24981226  0.41305870  0.28544158     0.00100
C1482       C  0.25663084  0.43497375  0.26360862    -0.08400
C1483       C  0.25837149  0.42753507  0.23042886     0.62000
H1484       H  0.26918214  0.48096209  0.25707481     0.12700
H1485       H  0.24370850  0.40393187  0.33236963     0.12700
C1486       C  0.25089022  0.45706554  0.35874693     0.62200
F1487       F  0.26891612  0.45127516  0.21360907    -0.22900
F1488       F  0.22975994  0.41999924  0.21982970    -0.20300
F1489       F  0.27792397  0.40407629  0.22613123    -0.20000
F1490       F  0.24194394  0.48602334  0.36339225    -0.20000
F1491       F  0.27829609  0.45227438  0.37325342    -0.20300
F1492       F  0.22906485  0.43883510  0.37160410    -0.23000
C1493       C  0.22249390  0.21272359  0.07786747    -0.05800
C1494       C  0.20908926  0.23634996  0.06221430     0.00100
C1495       C  0.20725742  0.26459289  0.07610753    -0.08500
C1496       C  0.21856267  0.26794000  0.10561711    -0.05900
C1497       C  0.23052929  0.24391423  0.12169625     0.00100
C1498       C  0.23293103  0.21594320  0.10764753    -0.08400
C1499       C  0.24584195  0.18955228  0.12437778     0.62000
H1500       H  0.22347875  0.19129523  0.06693367     0.12700
H1501       H  0.21643037  0.28898011  0.11713012     0.12700
C1502       C  0.19162167  0.29049776  0.06077374     0.62200
F1503       F  0.24911842  0.16521343  0.10575002    -0.22900
F1504       F  0.22669985  0.18161422  0.14761808    -0.20300
F1505       F  0.27414440  0.19687331  0.13602374    -0.20000
F1506       F  0.16195013  0.28274429  0.05364780    -0.20000
F1507       F  0.20685606  0.29815840  0.03483097    -0.20300
F1508       F  0.19095195  0.31535613  0.07901394    -0.23000
C1509       C  0.18563574  0.12633527  0.24251238    -0.05800
C1510       C  0.21490054  0.13679107  0.23591895     0.00100
C1511       C  0.23721319  0.11668711  0.22565869    -0.08500
C1512       C  0.22830671  0.08721313  0.21940058    -0.05900
C1513       C  0.19847718  0.07720965  0.22461027     0.00100
C1514       C  0.17747637  0.09650576  0.23849035    -0.08400
C1515       C  0.14635083  0.08678875  0.24953754     0.62000
H1516       H  0.16910679  0.14156409  0.25164352     0.12700
H1517       H  0.24423067  0.07207150  0.20924918     0.12700
C1518       C  0.26987626  0.12645508  0.22043747     0.62200
F1519       F  0.14232823  0.09681593  0.27861632    -0.22900
F1520       F  0.14271171  0.05630491  0.24996909    -0.20300
F1521       F  0.12414114  0.09898328  0.23134079    -0.20000
F1522       F  0.28325113  0.13422059  0.24753337    -0.20000
F1523       F  0.27062341  0.15053685  0.20119170    -0.20300
F1524       F  0.28703675  0.10408265  0.20789887    -0.23000
C1525       C  0.96154923  0.13867467  0.16328624    -0.05800
C1526       C  0.97561819  0.16641579  0.15988511     0.00100
C1527       C  0.98648469  0.17515052  0.13131014    -0.08500
C1528       C  0.98442619  0.15481413  0.10736905    -0.05900
C1529       C  0.97207214  0.12617783  0.11114090     0.00100
C1530       C  0.95931218  0.11830622  0.13948236    -0.08400
C1531       C  0.94294488  0.08892752  0.14503503     0.62000
H1532       H  0.95293532  0.13277757  0.18526608     0.12700
H1533       H  0.99352341  0.16089050  0.08566752     0.12700
C1534       C  0.99993125  0.20580774  0.12596426     0.62200
F1535       F  0.92724386  0.08898553  0.17191300    -0.22900
F1536       F  0.96367509  0.06606437  0.14637736    -0.20300
F1537       F  0.92203049  0.08360506  0.12230968    -0.20000
F1538       F  0.02751991  0.20857076  0.14071930    -0.20000
F1539       F  0.98027377  0.22718316  0.13642024    -0.20300
F1540       F  0.00480974  0.21113437  0.09573478    -0.23000
C1541       C  0.90447197  0.19697838  0.25215709    -0.05800
C1542       C  0.92523753  0.21942346  0.24419261     0.00100
C1543       C  0.91725408  0.24960847  0.24812995    -0.08500
C1544       C  0.88794508  0.25614813  0.25865035    -0.05900
C1545       C  0.86656484  0.23370422  0.26451666     0.00100
C1546       C  0.87505596  0.20362915  0.26217367    -0.08400
C1547       C  0.85298671  0.17879474  0.27000277     0.62000
H1548       H  0.91112990  0.17408735  0.24922623     0.12700
H1549       H  0.88073195  0.27898812  0.26047740     0.12700
C1550       C  0.93864323  0.27486648  0.23957120     0.62200
F1551       F  0.86657556  0.15124451  0.26850159    -0.22900
F1552       F  0.82855167  0.17882018  0.25033149    -0.20300
F1553       F  0.84256281  0.18280551  0.29895851    -0.20000
F1554       F  0.94895107  0.27099703  0.21054740    -0.20000
F1555       F  0.96315143  0.27578038  0.25910118    -0.20300
F1556       F  0.92443033  0.30211225  0.24089753    -0.23000
C1557       C  0.04878264  0.24458946  0.23217929    -0.05800
C1558       C  0.03859477  0.21598610  0.23935245     0.00100
C1559       C  0.05710654  0.19699833  0.25673651    -0.08500
C1560       C  0.08620884  0.20709395  0.26558268    -0.05900
C1561       C  0.09695834  0.23524496  0.25713371     0.00100
C1562       C  0.07791803  0.25454400  0.24059104    -0.08400
C1563       C  0.08861924  0.28531247  0.23142175     0.62000
H1564       H  0.03398474  0.25872023  0.21903185     0.12700
H1565       H  0.10136537  0.19255491  0.27781601     0.12700
C1566       C  0.04631940  0.16606867  0.26506340     0.62200
F1567       F  0.06599987  0.30098908  0.21678165    -0.22900
F1568       F  0.11309403  0.28321516  0.21225963    -0.20300
F1569       F  0.09727311  0.30113237  0.25669206    -0.20000
F1570       F  0.04241889  0.14927586  0.23932121    -0.20000
F1571       F  0.01892144  0.16766796  0.28004619    -0.20300
F1572       F  0.06696375  0.15178766  0.28354150    -0.23000
C1573       C  0.75647609  0.96566806  0.23645646    -0.05800
C1574       C  0.75133857  0.97443030  0.20655736     0.00100
C1575       C  0.73696748  0.95422727  0.18641682    -0.08500
C1576       C  0.73135596  0.92497882  0.19597391    -0.05900
C1577       C  0.73799463  0.91584510  0.22532678     0.00100
C1578       C  0.75001522  0.93654343  0.24622636    -0.08400
C1579       C  0.75742588  0.92731881  0.27820625     0.62000
H1580       H  0.76741844  0.98128705  0.25161441     0.12700
H1581       H  0.72206520  0.90892574  0.18018307     0.12700
C1582       C  0.72751181  0.96226308  0.15465683     0.62200
F1583       F  0.76767905  0.95102274  0.29535967    -0.22900
F1584       F  0.77983002  0.90599510  0.27803672    -0.20300
F1585       F  0.73168881  0.91573091  0.29168332    -0.20000
F1586       F  0.74723862  0.94935113  0.13454765    -0.20000
F1587       F  0.72722609  0.99255841  0.14990186    -0.20300
F1588       F  0.69841265  0.95159280  0.14907455    -0.23000
C1589       C  0.76177573  0.12631189  0.24702296    -0.05800
C1590       C  0.75285151  0.14650576  0.22465639     0.00100
C1591       C  0.74805665  0.13624425  0.19491312    -0.08500
C1592       C  0.75360614  0.10626061  0.18832187    -0.05900
C1593       C  0.76354857  0.08621581  0.21036783     0.00100
C1594       C  0.76739412  0.09620983  0.24039998    -0.08400
C1595       C  0.77785898  0.07549049  0.26522989     0.62000
H1596       H  0.76473948  0.13448859  0.26974235     0.12700
H1597       H  0.75083705  0.09822650  0.16552562     0.12700
C1598       C  0.73660466  0.15670444  0.17030461     0.62200
F1599       F  0.78419125  0.09066857  0.29160414    -0.22900
F1600       F  0.80398315  0.06094500  0.25668999    -0.20300
F1601       F  0.75528191  0.05486091  0.27118240    -0.20000
F1602       F  0.75828038  0.17819259  0.16418256    -0.20000
F1603       F  0.71005470  0.17016053  0.17940684    -0.20300
F1604       F  0.73046050  0.14147266  0.14392656    -0.23000
C1605       C  0.82564025  0.03947561  0.11680691    -0.05800
C1606       C  0.83062940  0.02618221  0.14479830     0.00100
C1607       C  0.85958405  0.01441927  0.15160348    -0.08500
C1608       C  0.88232196  0.01512865  0.12935146    -0.05900
C1609       C  0.87729639  0.02788388  0.10084363     0.00100
C1610       C  0.84849961  0.04112429  0.09481114    -0.08400
C1611       C  0.84195422  0.05833639  0.06612285     0.62000
H1612       H  0.80348862  0.04895362  0.11248835     0.12700
H1613       H  0.90434505  0.00563318  0.13416687     0.12700
C1614       C  0.86666523  0.00218607  0.18263241     0.62200
F1615       F  0.81459449  0.07324356  0.06746210    -0.22900
F1616       F  0.84032685  0.03919754  0.04190405    -0.20300
F1617       F  0.86462048  0.07927113  0.06157448    -0.20000
F1618       F  0.84905363  0.97727036  0.18809457    -0.20000
F1619       F  0.86057430  0.02344098  0.20413966    -0.20300
F1620       F  0.89688212  0.99430118  0.18553220    -0.23000
C1621       C  0.04775483  0.78822512  0.20919943    -0.05800
C1622       C  0.04147405  0.79039208  0.17828982     0.00100
C1623       C  0.06323325  0.78045336  0.15725501    -0.08500
C1624       C  0.09184517  0.77155675  0.16799426    -0.05900
C1625       C  0.09855642  0.77104597  0.19877000     0.00100
C1626       C  0.07594346  0.77820657  0.21988334    -0.08400
C1627       C  0.08186797  0.77584804  0.25342727     0.62000
H1628       H  0.03059971  0.79528133  0.22495257     0.12700
H1629       H  0.10963237  0.76578108  0.15236583     0.12700
C1630       C  0.05621940  0.77833568  0.12387797     0.62200
F1631       F  0.05655283  0.78342825  0.27002259    -0.22900
F1632       F  0.10556658  0.79452173  0.26169552    -0.20300
F1633       F  0.08939471  0.74696135  0.26054458    -0.20000
F1634       F  0.05321900  0.80625467  0.11155131    -0.20000
F1635       F  0.02950744  0.76247411  0.11956895    -0.20300
F1636       F  0.07907278  0.76394200  0.10850747    -0.23000
C1637       C  0.90642289  0.78253381  0.16983050    -0.05800
C1638       C  0.92889729  0.79312658  0.18964909     0.00100
C1639       C  0.92297944  0.79404179  0.22096235    -0.08500
C1640       C  0.89386464  0.78563311  0.23113997    -0.05900
C1641       C  0.87092616  0.77665920  0.21104093     0.00100
C1642       C  0.87738543  0.77427093  0.18005950    -0.08400
C1643       C  0.85330649  0.76363169  0.15796697     0.62000
H1644       H  0.91152037  0.78180973  0.14606079     0.12700
H1645       H  0.88822981  0.78751242  0.25471692     0.12700
C1646       C  0.94663928  0.80532548  0.24331816     0.62200
F1647       F  0.86439352  0.76185081  0.12899045    -0.22900
F1648       F  0.82914058  0.78298893  0.15784208    -0.20300
F1649       F  0.84313885  0.73576076  0.16635628    -0.20000
F1650       F  0.95616344  0.83353687  0.23532094    -0.20000
F1651       F  0.97135003  0.78662129  0.24376981    -0.20300
F1652       F  0.93524263  0.80662520  0.27221336    -0.23000
C1653       C  0.96998504  0.90071334  0.08568016    -0.05800
C1654       C  0.98350607  0.92657137  0.09781561     0.00100
C1655       C  0.99703680  0.92505596  0.12682324    -0.08500
C1656       C  0.99576881  0.89797533  0.14277164    -0.05900
C1657       C  0.98222810  0.87238592  0.13044033     0.00100
C1658       C  0.96972075  0.87350791  0.10111073    -0.08400
C1659       C  0.95750167  0.84582442  0.08550758     0.62000
H1660       H  0.95990444  0.90181897  0.06345601     0.12700
H1661       H  0.00567495  0.89641036  0.16504697     0.12700
C1662       C  0.01387531  0.95126570  0.14045554     0.62200
F1663       F  0.94904820  0.85140149  0.05602929    -0.22900
F1664       F  0.93224239  0.83508271  0.10038702    -0.20300
F1665       F  0.97968791  0.82425770  0.08522460    -0.20000
F1666       F  0.99345128  0.97326644  0.14761786    -0.20000
F1667       F  0.03492139  0.96209213  0.12018329    -0.20300
F1668       F  0.02938808  0.94346846  0.16640415    -0.23000
C1669       C  0.18160772  0.93695966  0.76861239    -0.05800
C1670       C  0.21154777  0.92721273  0.77275007     0.00100
C1671       C  0.23388505  0.94692799  0.78448178    -0.08500
C1672       C  0.22455501  0.97485920  0.79473590    -0.05900
C1673       C  0.19428455  0.98399416  0.79189959     0.00100
C1674       C  0.17280745  0.96563040  0.77688525    -0.08400
C1675       C  0.14143197  0.97672756  0.76812824     0.62000
H1676       H  0.16513401  0.92187841  0.75858456     0.12700
H1677       H  0.24078950  0.98981966  0.80528450     0.12700
C1678       C  0.26721485  0.93865965  0.78629952     0.62200
F1679       F  0.12636655  0.95695661  0.74932725    -0.22900
F1680       F  0.14426374  0.00341779  0.75301737    -0.20300
F1681       F  0.12371139  0.98070029  0.79327405    -0.20000
F1682       F  0.27841048  0.93502679  0.75758886    -0.20000
F1683       F  0.27063731  0.91259565  0.80225639    -0.20300
F1684       F  0.28451597  0.96043925  0.80036774    -0.23000
C1685       C  0.19049932  0.10514283  0.77089543    -0.05800
C1686       C  0.20412926  0.09424438  0.79716552     0.00100
C1687       C  0.22584102  0.11162511  0.81298107    -0.08500
C1688       C  0.23200322  0.14044548  0.80267363    -0.05900
C1689       C  0.21700022  0.15189424  0.77744843     0.00100
C1690       C  0.19654099  0.13402526  0.76073927    -0.08400
C1691       C  0.18056976  0.14590476  0.73298925     0.62000
H1692       H  0.17403014  0.09127586  0.75921414     0.12700
H1693       H  0.24771529  0.15471356  0.81486809     0.12700
C1694       C  0.24200699  0.09992694  0.84072877     0.62200
F1695       F  0.16080828  0.12517284  0.72054371    -0.22900
F1696       F  0.20191785  0.15348270  0.71157282    -0.20300
F1697       F  0.16401187  0.17076680  0.74037933    -0.20000
F1698       F  0.25599260  0.07340171  0.83403085    -0.20000
F1699       F  0.22136500  0.09534914  0.86358070    -0.20300
F1700       F  0.26406594  0.11957436  0.85106018    -0.23000
C1701       C  0.08263158  0.05246907  0.88248013    -0.05800
C1702       C  0.08941263  0.04095871  0.91112920     0.00100
C1703       C  0.11880284  0.02881697  0.91657578    -0.08500
C1704       C  0.14027698  0.02956169  0.89333937    -0.05900
C1705       C  0.13335698  0.04142457  0.86514475     0.00100
C1706       C  0.10403284  0.05266937  0.85922668    -0.08400
C1707       C  0.09512657  0.06411422  0.82828936     0.62000
H1708       H  0.06025438  0.06147280  0.87833955     0.12700
H1709       H  0.16287201  0.02079397  0.89689966     0.12700
C1710       C  0.12764374  0.01429022  0.94614566     0.62200
F1711       F  0.06451652  0.07085561  0.82655801    -0.22900
F1712       F  0.10104909  0.04279880  0.80681131    -0.20300
F1713       F  0.11144474  0.08958630  0.82171758    -0.20000
F1714       F  0.10647769  0.99268006  0.95346493    -0.20000
F1715       F  0.12925300  0.03546458  0.96857282    -0.20300
F1716       F  0.15573934  0.00073802  0.94469551    -0.23000
C1717       C  0.92084432  0.80690742  0.79552657    -0.05800
C1718       C  0.92726008  0.83736025  0.79363195     0.00100
C1719       C  0.90403364  0.85726353  0.78499684    -0.08500
C1720       C  0.87458315  0.84597234  0.77966750    -0.05900
C1721       C  0.86805255  0.81553168  0.78178315     0.00100
C1722       C  0.89157030  0.79549559  0.78936750    -0.08400
C1723       C  0.88588864  0.76226713  0.79087533     0.62000
H1724       H  0.93913217  0.79209476  0.80163657     0.12700
H1725       H  0.85636456  0.86087746  0.77355242     0.12700
C1726       C  0.91041313  0.89019202  0.78097846     0.62200
F1727       F  0.91032888  0.74743821  0.80334602    -0.22900
F1728       F  0.88115489  0.75138473  0.76217919    -0.20300
F1729       F  0.86064089  0.75617897  0.80826537    -0.20000
F1730       F  0.93567508  0.89434521  0.76303547    -0.20000
F1731       F  0.91563843  0.90324619  0.80862927    -0.20300
F1732       F  0.88622028  0.90451858  0.76743844    -0.23000
C1733       C  0.04486532  0.81609452  0.76154905    -0.05800
C1734       C  0.03745181  0.84604543  0.76541999     0.00100
C1735       C  0.05771526  0.86836853  0.75488135    -0.08500
C1736       C  0.08635070  0.85988980  0.74430983    -0.05900
C1737       C  0.09468334  0.83001631  0.74270020     0.00100
C1738       C  0.07348180  0.80763965  0.75070482    -0.08400
C1739       C  0.08207756  0.77513689  0.75025328     0.62000
H1740       H  0.02911521  0.79936841  0.76966111     0.12700
H1741       H  0.10294785  0.87685145  0.73851386     0.12700
C1742       C  0.05078829  0.90129046  0.75578162     0.62200
F1743       F  0.05845457  0.75699765  0.75973535    -0.22900
F1744       F  0.10667291  0.77052272  0.76913439    -0.20300
F1745       F  0.08966887  0.76695088  0.72135013    -0.20000
F1746       F  0.06653061  0.91434418  0.77937273    -0.20000
F1747       F  0.02007162  0.90670030  0.75899520    -0.20300
F1748       F  0.06001038  0.91452535  0.72925622    -0.23000
C1749       C  0.00379658  0.92580043  0.84911143    -0.05800
C1750       C  0.99926594  0.89606396  0.85697441     0.00100
C1751       C  0.99796456  0.88787097  0.88750756    -0.08500
C1752       C  0.99693920  0.91041754  0.90917570    -0.05900
C1753       C  0.99895321  0.94071377  0.90139948     0.00100
C1754       C  0.00480548  0.94839625  0.87081524    -0.08400
C1755       C  0.01276469  0.97972561  0.86055706     0.62000
H1756       H  0.00586691  0.93123904  0.82548989     0.12700
H1757       H  0.99477255  0.90425068  0.93254619     0.12700
C1758       C  0.99995219  0.85566121  0.89726146     0.62200
F1759       F  0.02272527  0.98030562  0.83109227    -0.22900
F1760       F  0.03603360  0.99114998  0.87824470    -0.20300
F1761       F  0.98751911  0.99770662  0.86228097    -0.20000
F1762       F  0.02790736  0.84465238  0.88888656    -0.20000
F1763       F  0.97722582  0.83881366  0.88398149    -0.20300
F1764       F  0.99730524  0.85258812  0.92809944    -0.23000
C1765       C  0.90523229  0.20371164  0.76302074    -0.05800
C1766       C  0.92502897  0.22619235  0.77312312     0.00100
C1767       C  0.91560496  0.25616371  0.77240322    -0.08500
C1768       C  0.88592418  0.26247611  0.76247371    -0.05900
C1769       C  0.86569153  0.23981765  0.75388389     0.00100
C1770       C  0.87546229  0.21002951  0.75351439    -0.08400
C1771       C  0.85425865  0.18511778  0.74358502     0.62000
H1772       H  0.91299491  0.18098425  0.76371097     0.12700
H1773       H  0.87767145  0.28504273  0.76289442     0.12700
C1774       C  0.93620399  0.28114771  0.78338735     0.62200
F1775       F  0.86871775  0.15795856  0.74340961    -0.22900
F1776       F  0.84374287  0.19078539  0.71482401    -0.20300
F1777       F  0.82980353  0.18307488  0.76284999    -0.20000
F1778       F  0.96086268  0.28404359  0.76449534    -0.20000
F1779       F  0.94640069  0.27516763  0.81219835    -0.20300
F1780       F  0.92126883  0.30805110  0.78397406    -0.23000
C1781       C  0.04386696  0.25095012  0.76320590    -0.05800
C1782       C  0.03858005  0.22086155  0.76984708     0.00100
C1783       C  0.06191507  0.20007786  0.76414394    -0.08500
C1784       C  0.09082700  0.21068022  0.75588395    -0.05900
C1785       C  0.09656442  0.24092263  0.75091991     0.00100
C1786       C  0.07246246  0.26137855  0.75358348    -0.08400
C1787       C  0.07730230  0.29426006  0.74800339     0.62000
H1788       H  0.02575565  0.26656607  0.76716370     0.12700
H1789       H  0.10936334  0.19515091  0.75368427     0.12700
C1790       C  0.05766348  0.16676104  0.76665603     0.62200
F1791       F  0.05090024  0.31024899  0.75207655    -0.22900
F1792       F  0.08677295  0.29863073  0.71878318    -0.20300
F1793       F  0.09906179  0.30528393  0.76764338    -0.20000
F1794       F  0.07091075  0.15694198  0.79304952    -0.20000
F1795       F  0.07158654  0.15291237  0.74269971    -0.20300
F1796       F  0.02739691  0.15838172  0.76605690    -0.23000
C1797       C  0.99032869  0.18231435  0.88165303    -0.05800
C1798       C  0.98022784  0.17153147  0.85369143     0.00100
C1799       C  0.96967589  0.14191115  0.85141880    -0.08500
C1800       C  0.96872706  0.12430702  0.87747160    -0.05900
C1801       C  0.97928202  0.13458228  0.90564974     0.00100
C1802       C  0.99032767  0.16429905  0.90776378    -0.08400
C1803       C  0.00299729  0.17680756  0.93694572     0.62000
H1804       H  0.99848131  0.20501604  0.88275163     0.12700
H1805       H  0.96000128  0.10184549  0.87575839     0.12700
C1806       C  0.96056850  0.12846974  0.82130321     0.62200
F1807       F  0.01513213  0.20498106  0.93316634    -0.22900
F1808       F  0.02590476  0.15875244  0.94767551    -0.20300
F1809       F  0.98007773  0.17858056  0.95798605    -0.20000
F1810       F  0.98337601  0.13319741  0.80059410    -0.20000
F1811       F  0.93403050  0.14117968  0.81092034    -0.20300
F1812       F  0.95582930  0.09818860  0.82334263    -0.23000
C1813       C  0.75203045  0.96202020  0.78507728    -0.05800
C1814       C  0.78069768  0.97204141  0.77550179     0.00100
C1815       C  0.79817129  0.95393869  0.75626489    -0.08500
C1816       C  0.78730745  0.92534164  0.74902677    -0.05900
C1817       C  0.75973891  0.91454303  0.76043103     0.00100
C1818       C  0.74126730  0.93330690  0.77794740    -0.08400
C1819       C  0.71063279  0.92264165  0.78939964     0.62000
H1820       H  0.73882144  0.97633550  0.79942828     0.12700
H1821       H  0.80116897  0.91051437  0.73584952     0.12700
C1822       C  0.82866683  0.96434205  0.74428705     0.62200
F1823       F  0.69569280  0.94456462  0.80513667    -0.22900
F1824       F  0.71442887  0.89864314  0.80833901    -0.20300
F1825       F  0.69248108  0.91417911  0.76535455    -0.20000
F1826       F  0.84999660  0.96452915  0.76720966    -0.20000
F1827       F  0.82615573  0.99264108  0.73257431    -0.20300
F1828       F  0.83897708  0.94595159  0.72169233    -0.23000
C1829       C  0.76127683  0.09665180  0.80690198    -0.05800
C1830       C  0.78004431  0.08357745  0.78531546     0.00100
C1831       C  0.78892025  0.10006289  0.75967630    -0.08500
C1832       C  0.77896176  0.12948563  0.75682916    -0.05900
C1833       C  0.76095532  0.14274053  0.77885088     0.00100
C1834       C  0.75134087  0.12606776  0.80399460    -0.08400
C1835       C  0.73043422  0.13921984  0.82731653     0.62000
H1836       H  0.75496987  0.08369575  0.82643089     0.12700
H1837       H  0.78558682  0.14266853  0.73755307     0.12700
C1838       C  0.80921989  0.08693706  0.73578109     0.62200
F1839       F  0.72213925  0.11860266  0.84889526    -0.22900
F1840       F  0.70421494  0.14929080  0.81350126    -0.20300
F1841       F  0.74499316  0.16260757  0.84158123    -0.20000
F1842       F  0.79500472  0.06256016  0.72296639    -0.20000
F1843       F  0.83650606  0.07835579  0.74849963    -0.20300
F1844       F  0.81549893  0.10710117  0.71310851    -0.23000
C1845       C  0.84345665  0.00672266  0.87402949    -0.05800
C1846       C  0.84996285  0.02386832  0.84846215     0.00100
C1847       C  0.87712356  0.04101004  0.84783855    -0.08500
C1848       C  0.89484289  0.04309602  0.87404947    -0.05900
C1849       C  0.88818018  0.02645845  0.89991174     0.00100
C1850       C  0.86264631  0.00691696  0.89951519    -0.08400
C1851       C  0.85615165  0.98550280  0.92509856     0.62000
H1852       H  0.82285857  0.99338723  0.87404753     0.12700
H1853       H  0.91487302  0.05730140  0.87388892     0.12700
C1854       C  0.88945175  0.05637501  0.82003088     0.62200
F1855       F  0.83365957  0.96512322  0.91750750    -0.22900
F1856       F  0.84658225  0.00090966  0.95011546    -0.20300
F1857       F  0.88214568  0.96981020  0.93209902    -0.20000
F1858       F  0.91948094  0.04839308  0.81615074    -0.20000
F1859       F  0.88807046  0.08676605  0.82387191    -0.20300
F1860       F  0.87406736  0.04871282  0.79399639    -0.23000
C1861       C  0.23287426  0.83800234  0.10051843    -0.05800
C1862       C  0.21805484  0.81162273  0.10873496     0.00100
C1863       C  0.20015611  0.79583242  0.08757257    -0.08500
C1864       C  0.19659868  0.80782200  0.05868126    -0.05900
C1865       C  0.21040493  0.83482347  0.05084678     0.00100
C1866       C  0.22947346  0.84988579  0.07155539    -0.08400
C1867       C  0.24606837  0.87823384  0.06285648     0.62000
H1868       H  0.24683597  0.84935566  0.11711057     0.12700
H1869       H  0.18206357  0.79684988  0.04230607     0.12700
C1870       C  0.18414957  0.76708992  0.09595275     0.62200
F1871       F  0.26419936  0.88889330  0.08604817    -0.22900
F1872       F  0.22540932  0.89999483  0.05536047    -0.20300
F1873       F  0.26446188  0.87278490  0.03840352    -0.20000
F1874       F  0.16524012  0.77183507  0.12017064    -0.20000
F1875       F  0.20544365  0.74597222  0.10358578    -0.20300
F1876       F  0.16666956  0.75602996  0.07246861    -0.23000
C1877       C  0.23002121  0.86340177  0.92106472    -0.05800
C1878       C  0.21437654  0.84274506  0.93896001     0.00100
C1879       C  0.20736383  0.81415859  0.92740908    -0.08500
C1880       C  0.21623118  0.80734553  0.89796297    -0.05900
C1881       C  0.23069594  0.82840327  0.87976578     0.00100
C1882       C  0.23799297  0.85676475  0.89128382    -0.08400
C1883       C  0.25305998  0.88005765  0.87169310     0.62000
H1884       H  0.23475346  0.88521964  0.93023307     0.12700
H1885       H  0.21050518  0.78596375  0.88826645     0.12700
C1886       C  0.18894053  0.79162496  0.94525377     0.62200
F1887       F  0.26002137  0.90559315  0.88765997    -0.22900
F1888       F  0.23371221  0.88750954  0.84833139    -0.20300
F1889       F  0.27974985  0.86898512  0.86004496    -0.20000
F1890       F  0.16174593  0.80401543  0.95405482    -0.20000
F1891       F  0.20506178  0.78281932  0.97039455    -0.20300
F1892       F  0.18224751  0.76649769  0.92852168    -0.23000
C1893       C  0.14494432  0.92854738  0.01453741    -0.05800
C1894       C  0.14022196  0.90236631  0.99815637     0.00100
C1895       C  0.11096327  0.89567454  0.98655075    -0.08500
C1896       C  0.08775379  0.91662177  0.99011955    -0.05900
C1897       C  0.09256739  0.94348771  0.00567409     0.00100
C1898       C  0.12155651  0.94912324  0.01904213    -0.08400
C1899       C  0.12793757  0.97597429  0.03883444     0.62000
H1900       H  0.16734682  0.93262699  0.02399708     0.12700
H1901       H  0.06561924  0.91221873  0.98023824     0.12700
C1902       C  0.10401816  0.86631523  0.97107930     0.62200
F1903       F  0.15551098  0.97375884  0.05382078    -0.22900
F1904       F  0.10546735  0.97855900  0.06027663    -0.20300
F1905       F  0.12904272  0.00132821  0.02146669    -0.20000
F1906       F  0.07312851  0.86227808  0.96629334    -0.20000
F1907       F  0.11412537  0.84301238  0.98862666    -0.20300
F1908       F  0.11824501  0.86543283  0.94351685    -0.23000
C1909       C  0.72583659  0.22243423  0.11164549    -0.05800
C1910       C  0.73614154  0.25021767  0.12160606     0.00100
C1911       C  0.75265961  0.26893480  0.10201036    -0.08500
C1912       C  0.76017515  0.25825098  0.07328388    -0.05900
C1913       C  0.75161931  0.22957265  0.06403913     0.00100
C1914       C  0.73310116  0.21182784  0.08287968    -0.08400
C1915       C  0.72164143  0.18158778  0.07288216     0.62000
H1916       H  0.71322270  0.20852575  0.12711136     0.12700
H1917       H  0.77376732  0.27174369  0.05825308     0.12700
C1918       C  0.76271414  0.29971564  0.11193571     0.62200
F1919       F  0.69959627  0.17058407  0.09205902    -0.22900
F1920       F  0.74549717  0.16184796  0.07235622    -0.20300
F1921       F  0.70891965  0.18351243  0.04445832    -0.20000
F1922       F  0.78242949  0.29765786  0.13615648    -0.20000
F1923       F  0.73757010  0.31589558  0.12034751    -0.20300
F1924       F  0.77739645  0.31497476  0.08918429    -0.23000
C1925       C  0.72625906  0.21375617  0.93790916    -0.05800
C1926       C  0.75066146  0.22912675  0.95142871     0.00100
C1927       C  0.76385085  0.25364207  0.93648390    -0.08500
C1928       C  0.75438903  0.26006301  0.90695082    -0.05900
C1929       C  0.73134434  0.24353256  0.89249909     0.00100
C1930       C  0.71589849  0.22097093  0.90868411    -0.08400
C1931       C  0.68917023  0.20429401  0.89496183     0.62000
H1932       H  0.71588588  0.19560876  0.95018889     0.12700
H1933       H  0.76556548  0.27765412  0.89450866     0.12700
C1934       C  0.78803225  0.27263788  0.95177351     0.62200
F1935       F  0.67770295  0.18297357  0.91432440    -0.22900
F1936       F  0.69798088  0.19034887  0.86885518    -0.20300
F1937       F  0.66613112  0.22396846  0.88837271    -0.20000
F1938       F  0.81356689  0.25586950  0.95760107    -0.20000
F1939       F  0.77689285  0.28350693  0.97857226    -0.20300
F1940       F  0.79658018  0.29657712  0.93419231    -0.23000
C1941       C  0.82354962  0.14179798  0.99091318    -0.05800
C1942       C  0.82710883  0.16799711  0.00765890     0.00100
C1943       C  0.85546139  0.17367823  0.02215198    -0.08500
C1944       C  0.87842096  0.15201732  0.02064760    -0.05900
C1945       C  0.87468732  0.12541573  0.00438393     0.00100
C1946       C  0.84687878  0.12065068  0.98841690    -0.08400
C1947       C  0.84197355  0.09434674  0.96748989     0.62000
H1948       H  0.80201587  0.13806885  0.97955235     0.12700
H1949       H  0.89964660  0.15573330  0.03256848     0.12700
C1950       C  0.86225269  0.20273017  0.03834638     0.62200
F1951       F  0.84043317  0.06829711  0.98376160    -0.22900
F1952       F  0.86559959  0.09293834  0.94717045    -0.20300
F1953       F  0.81514393  0.09663196  0.95123305    -0.20000
F1954       F  0.84770645  0.20321765  0.06574355    -0.20000
F1955       F  0.85272373  0.22648585  0.02112544    -0.20300
F1956       F  0.89309682  0.20643322  0.04374217    -0.23000
C1957       C  0.77951148  0.78358666  0.10707936    -0.05800
C1958       C  0.76673597  0.80747336  0.12260648     0.00100
C1959       C  0.76240723  0.83488981  0.10788414    -0.08500
C1960       C  0.77148956  0.83752026  0.07781541    -0.05900
C1961       C  0.78517286  0.81394586  0.06245841     0.00100
C1962       C  0.78941330  0.78643577  0.07723659    -0.08400
C1963       C  0.80526098  0.76060005  0.06221619     0.62000
H1964       H  0.78229394  0.76275438  0.11887972     0.12700
H1965       H  0.76842643  0.85830743  0.06604457     0.12700
C1966       C  0.74761953  0.86092849  0.12356586     0.62200
F1967       F  0.81099392  0.73781877  0.08228110    -0.22900
F1968       F  0.83279904  0.76990922  0.05052339    -0.20300
F1969       F  0.78721962  0.74926544  0.03938905    -0.20000
F1970       F  0.76529710  0.87001089  0.14769346    -0.20000
F1971       F  0.71913772  0.85257662  0.13368780    -0.20300
F1972       F  0.74417706  0.88497086  0.10452090    -0.23000
C1973       C  0.74870501  0.79408806  0.90934150    -0.05800
C1974       C  0.76967455  0.77752943  0.89285388     0.00100
C1975       C  0.79815131  0.77049329  0.90565717    -0.08500
C1976       C  0.80515060  0.78109010  0.93464274    -0.05900
C1977       C  0.78487039  0.79914342  0.95043220     0.00100
C1978       C  0.75594812  0.80544974  0.93793832    -0.08400
C1979       C  0.73358989  0.82545016  0.95390876     0.62000
H1980       H  0.72724275  0.79961058  0.89873977     0.12700
H1981       H  0.82726270  0.77685831  0.94452012     0.12700
C1982       C  0.82159957  0.75358755  0.88787218     0.62200
F1983       F  0.70814806  0.83105674  0.93640482    -0.22900
F1984       F  0.74731350  0.85236915  0.96063983    -0.20300
F1985       F  0.72399702  0.81210536  0.98018278    -0.20000
F1986       F  0.83018540  0.77011355  0.86311473    -0.20000
F1987       F  0.80932895  0.72684560  0.87832720    -0.20300
F1988       F  0.84734938  0.74775052  0.90483638    -0.23000
C1989       C  0.87828110  0.87389859  0.98776675    -0.05800
C1990       C  0.84866734  0.87867664  0.99773204     0.00100
C1991       C  0.83929269  0.90777296  0.00477314    -0.08500
C1992       C  0.86086120  0.93096513  0.00384238    -0.05900
C1993       C  0.89127264  0.92620840  0.99542859     0.00100
C1994       C  0.89978399  0.89713428  0.98590327    -0.08400
C1995       C  0.93087806  0.89017998  0.97302999     0.62000
H1996       H  0.88455383  0.85146730  0.98187364     0.12700
H1997       H  0.85405482  0.95300703  0.01048757     0.12700
C1998       C  0.80655454  0.91438839  0.01298763     0.62200
F1999       F  0.93163203  0.86223147  0.96015796    -0.22900
F2000       F  0.95271230  0.89104733  0.99551144    -0.20300
F2001       F  0.93799541  0.91047742  0.95081422    -0.20000
F2002       F  0.80018689  0.90318069  0.04115711    -0.20000
F2003       F  0.78698123  0.90163297  0.99215282    -0.20300
F2004       F  0.80104488  0.94456221  0.01342796    -0.23000
loop_ 
_geom_bond_atom_site_label_1 
_geom_bond_atom_site_label_2 
_geom_bond_distance 
_geom_bond_site_symmetry_2 
_ccdc_geom_bond_type 
C1            C2   1.404       .  A
C1            C6   1.402       .  A
C1         C1961   1.480       .  S
C2            C3   1.403   1_554  A
C2            H7   1.081       .  S
C3            C4   1.405       .  A
C3         C1977   1.480       .  S
C4            C5   1.402   1_556  A
C4            H8   1.084       .  S
C5            C6   1.398       .  A
C5         C1990   1.481   1_554  S
C6            H9   1.084       .  S
C10          C11   1.403       .  A
C10          C15   1.406       .  A
C10        C1913   1.482       .  S
C11          C12   1.402   1_554  A
C11          H16   1.084       .  S
C12          C13   1.407       .  A
C12        C1926   1.485       .  S
C13          C14   1.409   1_556  A
C13          H17   1.084       .  S
C14          C15   1.406       .  A
C14        C1942   1.499       .  S
C15          H18   1.081       .  S
C19          C20   1.399   1_554  A
C19          C24   1.397       .  A
C19        C1865   1.468       .  S
C20          C21   1.402       .  A
C20          H25   1.083       .  S
C21          C22   1.406       .  A
C21        C1878   1.478       .  S
C22          C23   1.403       .  A
C22          H26   1.083       .  S
C23          C24   1.397   1_556  A
C23        C1894   1.480       .  S
C24          H27   1.085       .  S
C28          C29   1.408       .  A
C28          C33   1.400       .  A
C28        C1830   1.480       .  S
C29          C30   1.408       .  A
C29          H34   1.083       .  S
C30          C31   1.405   1_545  A
C30        C1814   1.486   1_545  S
C31          C32   1.403   1_565  A
C31          H35   1.084       .  S
C32          C33   1.401       .  A
C32        C1846   1.485       .  S
C33          H36   1.085       .  S
C37          C38   1.403       .  A
C37          C42   1.400       .  A
C37        C1766   1.479       .  S
C38          C39   1.402       .  A
C38          H43   1.084       .  S
C39          C40   1.407   1_655  A
C39        C1798   1.490       .  S
C40          C41   1.412       .  A
C40          H44   1.083       .  S
C41          C42   1.405   1_455  A
C41        C1782   1.491       .  S
C42          H45   1.084       .  S
C46          C47   1.406       .  A
C46          C51   1.401       .  A
C46        C1718   1.481       .  S
C47          C48   1.406   1_655  A
C47          H52   1.084       .  S
C48          C49   1.403       .  A
C48        C1734   1.482       .  S
C49          C50   1.397   1_455  A
C49          H53   1.084       .  S
C50          C51   1.401       .  A
C50        C1750   1.474       .  S
C51          H54   1.084       .  S
C55          C56   1.400       .  A
C55          C60   1.399       .  A
C55        C1686   1.468       .  S
C56          C57   1.403       .  A
C56          H61   1.084       .  S
C57          C58   1.402       .  A
C57        C1673   1.475   1_545  S
C58          C59   1.399       .  A
C58          H62   1.084   1_545  S
C59          C60   1.396       .  A
C59        C1705   1.472       .  S
C60          H63   1.084       .  S
C64          C65   1.400       .  A
C64          C69   1.406       .  A
C64        C1638   1.482       .  S
C65          C66   1.403   1_655  A
C65          H70   1.083       .  S
C66          C67   1.405       .  A
C66        C1622   1.481       .  S
C67          C68   1.403   1_455  A
C67          H71   1.083       .  S
C68          C69   1.405       .  A
C68        C1657   1.487       .  S
C69          H72   1.084       .  S
C73          C74   1.409       .  A
C73          C78   1.406       .  A
C73        C1593   1.491       .  S
C74          C75   1.410       .  A
C74          H79   1.082       .  S
C75          C76   1.407       .  A
C75        C1574   1.489   1_545  S
C76          C77   1.403       .  A
C76          H80   1.084   1_545  S
C77          C78   1.401       .  A
C77        C1606   1.487       .  S
C78          H81   1.084       .  S
C82          C83   1.406       .  A
C82          C87   1.401       .  A
C82        C1542   1.483       .  S
C83          C84   1.404       .  A
C83          H88   1.084       .  S
C84          C85   1.402   1_655  A
C84        C1526   1.483       .  S
C85          C86   1.402       .  A
C85          H89   1.083       .  S
C86          C87   1.400   1_455  A
C86        C1558   1.474       .  S
C87          H90   1.082       .  S
Zr91         O92   2.442       .  S
Zr91         O93   2.425       .  S
Zr91         O94   2.426       .  S
Zr91         O97   2.421       .  S
Zr91         O99   2.380       .  S
Zr91        O100   2.380       .  S
Zr91        O101   2.402       .  S
Zr91        O102   2.395       .  S
O92         H148   0.990       .  S
O92         H156   0.990       .  S
O93         C113   1.282       .  A
O94         C115   1.281       .  A
O95        Zr105   2.438       .  S
O95         C114   1.284       .  A
O96        Zr104   2.452       .  S
O96         C115   1.287       .  A
O97         C114   1.282       .  A
O98        Zr106   2.429       .  S
O98         C113   1.282       .  A
O99        Zr104   2.400       .  S
O99        Zr106   2.380       .  S
O100       Zr105   2.390       .  S
O100       Zr106   2.374       .  S
O100        H135   0.966       .  S
O101       Zr104   2.407       .  S
O101       Zr121   2.391       .  S
O101        H138   0.966       .  S
O102       Zr105   2.396       .  S
O102       Zr121   2.389       .  S
Zr103       O128   2.443       .  S
Zr103       O122   2.445       .  S
Zr103       O130   2.419       .  S
Zr103       O118   2.421       .  S
Zr103       O109   2.405       .  S
Zr103       O110   2.405       .  S
Zr103       O111   2.376       .  S
Zr103       O112   2.379       .  S
Zr104       O123   2.434       .  S
Zr104       O116   2.435       .  S
Zr104       O117   2.456       .  S
Zr104       O110   2.398       .  S
Zr104       O111   2.402       .  S
Zr105       O107   2.435       .  S
Zr105       O129   2.439       .  S
Zr105       O131   2.444       .  S
Zr105       O109   2.394       .  S
Zr105       O112   2.401       .  S
Zr106       O132   2.435       .  S
Zr106       O133   2.437       .  S
Zr106       O108   2.435       .  S
Zr106       O109   2.398       .  S
Zr106       O110   2.388       .  S
O107        H144   0.990       .  S
O108        H139   0.990       .  S
O108        H153   0.990       .  S
O110        H136   0.965       .  S
O111       Zr121   2.383       .  S
O112       Zr121   2.382       .  S
O112        H137   0.966       .  S
C113       C1481   1.479       .  S
C114       C1446   1.469       .  S
C115       C1465   1.477       .  S
O116        H152   0.990       .  S
O117        C119   1.288       .  A
O118        C119   1.281       .  A
C119       C1497   1.475       .  S
O120       Zr121   2.434       .  S
O120        H149   0.990       .  S
Zr121       O124   2.435       .  S
Zr121       O125   2.439       .  S
Zr121       O126   2.408       .  S
O122        C127   1.286       .  A
O123        H140   0.990       .  S
O123        H155   0.990       .  S
O124        H141   0.990       .  S
O125        H145   0.990       .  S
O125        H154   0.990       .  S
O126        C127   1.277       .  A
C127       C1510   1.477       .  S
O128        H147   0.990       .  S
O128        H151   0.990       .  S
O129        H143   0.989       .  S
O129        H150   0.990       .  S
O130        C134   1.279       .  A
O131        C134   1.285       .  A
O132        H142   0.990       .  S
O133        H146   0.990       .  S
C134       C1561   1.471       .  S
C157        C158   1.406       .  A
C157        C162   1.401       .  A
C157       C1513   1.482       .  S
C158        C159   1.407   1_545  A
C158        H163   1.084       .  S
C159        C160   1.410       .  A
C159       C1430   1.484       .  S
C160        C161   1.404   1_565  A
C160        H164   1.083       .  S
C161        C162   1.397       .  A
C161       C1414   1.484       .  S
C162        H165   1.084       .  S
Zr166       O167   2.441       .  S
Zr166       O168   2.426       .  S
Zr166       O169   2.430       .  S
Zr166       O172   2.408       .  S
Zr166       O174   2.380       .  S
Zr166       O175   2.382       .  S
Zr166       O176   2.403       .  S
Zr166       O177   2.399       .  S
O167        H223   0.990       .  S
O167        H231   0.990       .  S
O168        C188   1.281       .  A
O169        C190   1.282       .  A
O170       Zr180   2.443       .  S
O170        C189   1.285       .  A
O171       Zr179   2.456       .  S
O171        C190   1.288       .  A
O172        C189   1.280       .  A
O173       Zr181   2.412       .  S
O173        C188   1.279       .  A
O174       Zr179   2.403       .  S
O174       Zr181   2.382       .  S
O175       Zr180   2.397       .  S
O175       Zr181   2.378       .  S
O175        H210   0.966       .  S
O176       Zr179   2.400       .  S
O176       Zr196   2.391       .  S
O176        H213   0.964       .  S
O177       Zr180   2.392       .  S
O177       Zr196   2.392       .  S
Zr178       O203   2.443       .  S
Zr178       O197   2.429       .  S
Zr178       O205   2.409       .  S
Zr178       O193   2.419       .  S
Zr178       O184   2.397       .  S
Zr178       O185   2.403       .  S
Zr178       O186   2.375       .  S
Zr178       O187   2.379       .  S
Zr179       O198   2.434       .  S
Zr179       O191   2.434       .  S
Zr179       O192   2.453       .  S
Zr179       O185   2.404       .  S
Zr179       O186   2.395       .  S
Zr180       O182   2.437       .  S
Zr180       O204   2.437       .  S
Zr180       O206   2.436       .  S
Zr180       O184   2.393       .  S
Zr180       O187   2.394       .  S
Zr181       O207   2.435       .  S
Zr181       O208   2.435       .  S
Zr181       O183   2.438       .  S
Zr181       O184   2.388       .  S
Zr181       O185   2.387       .  S
O182        H219   0.990       .  S
O183        H214   0.990       .  S
O183        H228   0.990       .  S
O185        H211   0.964       .  S
O186       Zr196   2.380       .  S
O187       Zr196   2.379       .  S
O187        H212   0.966       .  S
C188       C1369   1.469       .  S
C189       C1382   1.468       .  S
C190       C1401   1.479       .  S
O191        H227   0.989       .  S
O192        C194   1.288       .  A
O193        C194   1.280       .  A
C194       C1433   1.473       .  S
O195       Zr196   2.435       .  S
O195        H224   0.990       .  S
Zr196       O199   2.436       .  S
Zr196       O200   2.436       .  S
Zr196       O201   2.409       .  S
O197        C202   1.282       .  A
O198        H215   0.990       .  S
O198        H230   0.989       .  S
O199        H216   0.990       .  S
O200        H220   0.990       .  S
O200        H229   0.989       .  S
O201        C202   1.278       .  A
C202       C1862   1.463       .  S
O203        H222   0.990       .  S
O203        H226   0.990       .  S
O204        H218   0.990       .  S
O204        H225   0.990       .  S
O205        C209   1.280       .  A
O206        C209   1.284       .  A
O207        H217   0.990       .  S
O208        H221   0.990       .  S
C209       C1625   1.465       .  S
Zr232       O233   2.441       .  S
Zr232       O234   2.443       .  S
Zr232       O235   2.415       .  S
Zr232       O238   2.411       .  S
Zr232       O240   2.374       .  S
Zr232       O241   2.374       .  S
Zr232       O242   2.407       .  S
Zr232       O243   2.402       .  S
O233        H289   0.990       .  S
O233        H297   0.990       .  S
O234        C254   1.285       .  A
O235        C256   1.280       .  A
O236       Zr246   2.445       .  S
O236        C255   1.286       .  A
O237       Zr245   2.451       .  S
O237        C256   1.287       .  A
O238        C255   1.281       .  A
O239       Zr247   2.432       .  S
O239        C254   1.283       .  A
O240       Zr245   2.396       .  S
O240       Zr247   2.376       .  S
O241       Zr246   2.396       .  S
O241       Zr247   2.376       .  S
O241        H276   0.966       .  S
O242       Zr245   2.398       .  S
O242       Zr262   2.399       .  S
O242        H279   0.966       .  S
O243       Zr246   2.395       .  S
O243       Zr262   2.400       .  S
Zr244       O269   2.440       .  S
Zr244       O263   2.429       .  S
Zr244       O271   2.433       .  S
Zr244       O259   2.409       .  S
Zr244       O250   2.398       .  S
Zr244       O251   2.404       .  S
Zr244       O252   2.380       .  S
Zr244       O253   2.377       .  S
Zr245       O264   2.437       .  S
Zr245       O257   2.435       .  S
Zr245       O258   2.445       .  S
Zr245       O251   2.398       .  S
Zr245       O252   2.395       .  S
Zr246       O248   2.437       .  S
Zr246       O270   2.436       .  S
Zr246       O272   2.445       .  S
Zr246       O250   2.396       .  S
Zr246       O253   2.397       .  S
Zr247       O273   2.434       .  S
Zr247       O274   2.435       .  S
Zr247       O249   2.437       .  S
Zr247       O250   2.403       .  S
Zr247       O251   2.389       .  S
O248        H285   0.990       .  S
O249        H280   0.990       .  S
O249        H294   0.990       .  S
O251        H277   0.965       .  S
O252       Zr262   2.371       .  S
O253       Zr262   2.379       .  S
O253        H278   0.966       .  S
C254       C1590   1.485       .  S
C255       C1910   1.470       .  S
C256       C1545   1.472       .  S
O257        H293   0.990       .  S
O258        C260   1.287       .  A
O259        C260   1.281       .  A
C260       C1318   1.467       .  S
O261       Zr262   2.435       .  S
O261        H290   0.990       .  S
Zr262       O265   2.436       .  S
Zr262       O266   2.437       .  S
Zr262       O267   2.436       .  S
O263        C268   1.282       .  A
O264        H281   0.990       .  S
O264        H296   0.990       .  S
O265        H282   0.990       .  S
O266        H286   0.990       .  S
O266        H295   0.989       .  S
O267        C268   1.283       .  A
C268       C1334   1.475       .  S
O269        H288   0.990       .  S
O269        H292   0.990       .  S
O270        H284   0.990       .  S
O270        H291   0.990       .  S
O271        C275   1.283       .  A
O272        C275   1.286       .  A
O273        H283   0.990       .  S
O274        H287   0.990       .  S
C275       C1350   1.480       .  S
Zr298       O299   2.442       .  S
Zr298       O300   2.421       .  S
Zr298       O301   2.427       .  S
Zr298       O304   2.410       .  S
Zr298       O306   2.373       .  S
Zr298       O307   2.383       .  S
Zr298       O308   2.399       .  S
Zr298       O309   2.398       .  S
O299        H355   0.991       .  S
O299        H363   0.990       .  S
O300        C320   1.280       .  A
O301        C322   1.282       .  A
O302       Zr312   2.478       .  S
O302        C321   1.292       .  A
O303       Zr311   2.448       .  S
O303        C322   1.286       .  A
O304        C321   1.281       .  A
O305       Zr313   2.418       .  S
O305        C320   1.280       .  A
O306       Zr311   2.396       .  S
O306       Zr313   2.378       .  S
O307       Zr312   2.390       .  S
O307       Zr313   2.385       .  S
O307        H342   0.965       .  S
O308       Zr311   2.402       .  S
O308       Zr328   2.396       .  S
O308        H345   0.965       .  S
O309       Zr312   2.392       .  S
O309       Zr328   2.390       .  S
Zr310       O335   2.441       .  S
Zr310       O329   2.428       .  S
Zr310       O337   2.420       .  S
Zr310       O325   2.419       .  S
Zr310       O316   2.398       .  S
Zr310       O317   2.397       .  S
Zr310       O318   2.376       .  S
Zr310       O319   2.384       .  S
Zr311       O330   2.435       .  S
Zr311       O323   2.434       .  S
Zr311       O324   2.453       .  S
Zr311       O317   2.399       .  S
Zr311       O318   2.393       .  S
Zr312       O314   2.434       .  S
Zr312       O336   2.437       .  S
Zr312       O338   2.453       .  S
Zr312       O316   2.402       .  S
Zr312       O319   2.401       .  S
Zr313       O339   2.436       .  S
Zr313       O340   2.435       .  S
Zr313       O315   2.438       .  S
Zr313       O316   2.396       .  S
Zr313       O317   2.390       .  S
O314        H351   0.990       .  S
O315        H346   0.990       .  S
O315        H360   0.990       .  S
O317        H343   0.966       .  S
O318       Zr328   2.375       .  S
O319       Zr328   2.380       .  S
O319        H344   0.966       .  S
C320       C1273   1.466       .  S
C321       C1286   1.494       .  S
C322       C1302   1.482       .  S
O323        H359   0.990       .  S
O324        C326   1.288       .  A
O325        C326   1.282       .  A
C326       C1641   1.475       .  S
O327       Zr328   2.435       .  S
O327        H356   0.990       .  S
Zr328       O331   2.436       .  S
Zr328       O332   2.439       .  S
Zr328       O333   2.417       .  S
O329        C334   1.282       .  A
O330        H347   0.989       .  S
O330        H362   0.990       .  S
O331        H348   0.990       .  S
O332        H352   0.990       .  S
O332        H361   0.990       .  S
O333        C334   1.280       .  A
C334       C1958   1.471       .  S
O335        H354   0.990       .  S
O335        H358   0.990       .  S
O336        H350   0.990       .  S
O336        H357   0.989       .  S
O337        C341   1.281       .  A
O338        C341   1.288       .  A
O339        H349   0.990       .  S
O340        H353   0.990       .  S
C341       C1577   1.476       .  S
C364        C365   1.405       .  A
C364        C369   1.406       .  A
C364       C1494   1.485       .  S
C365        C366   1.404   1_554  A
C365        H370   1.083       .  S
C366        C367   1.408       .  A
C366       C1257   1.486       .  S
C367        C368   1.406   1_556  A
C367        H371   1.083       .  S
C368        C369   1.404       .  A
C368       C1241   1.494       .  S
C369        H372   1.084       .  S
Zr373       O374   2.442       .  S
Zr373       O375   2.429       .  S
Zr373       O376   2.428       .  S
Zr373       O379   2.415       .  S
Zr373       O381   2.376       .  S
Zr373       O382   2.378       .  S
Zr373       O383   2.401       .  S
Zr373       O384   2.396       .  S
O374        H430   0.990       .  S
O374        H438   0.991       .  S
O375        C395   1.282       .  A
O376        C397   1.281       .  A
O377       Zr387   2.453       .  S
O377        C396   1.287       .  A
O378       Zr386   2.454       .  S
O378        C397   1.287       .  A
O379        C396   1.281       .  A
O380       Zr388   2.403       .  S
O380        C395   1.277       .  A
O381       Zr386   2.405       .  S
O381       Zr388   2.388       .  S
O382       Zr387   2.397       .  S
O382       Zr388   2.380       .  S
O382        H417   0.966       .  S
O383       Zr386   2.405       .  S
O383       Zr403   2.390       .  S
O383        H420   0.972       .  S
O384       Zr387   2.392       .  S
O384       Zr403   2.390       .  S
Zr385       O410   2.444       .  S
Zr385       O404   2.413       .  S
Zr385       O412   2.410       .  S
Zr385       O400   2.419       .  S
Zr385       O391   2.396       .  S
Zr385       O392   2.395       .  S
Zr385       O393   2.377       .  S
Zr385       O394   2.380       .  S
Zr386       O405   2.435       .  S
Zr386       O398   2.435       .  S
Zr386       O399   2.453       .  S
Zr386       O392   2.402       .  S
Zr386       O393   2.402       .  S
Zr387       O389   2.436       .  S
Zr387       O411   2.438       .  S
Zr387       O413   2.445       .  S
Zr387       O391   2.399       .  S
Zr387       O394   2.397       .  S
Zr388       O414   2.436       .  S
Zr388       O415   2.439       .  S
Zr388       O390   2.440       .  S
Zr388       O391   2.390       .  S
Zr388       O392   2.384       .  S
O389        H426   0.990       .  S
O390        H421   0.990       .  S
O390        H435   0.990       .  S
O392        H418   0.968       .  S
O393       Zr403   2.382       .  S
O394       Zr403   2.380       .  S
O394        H419   0.967       .  S
C395       C1689   1.461       .  S
C396       C1254   1.479       .  S
C397       C1785   1.480       .  S
O398        H434   0.990       .  S
O399        C401   1.287       .  A
O400        C401   1.281       .  A
C401       C1190   1.472       .  S
O402       Zr403   2.435       .  S
O402        H431   0.990       .  S
Zr403       O406   2.434       .  S
Zr403       O407   2.441       .  S
Zr403       O408   2.409       .  S
O404        C409   1.279       .  A
O405        H422   0.989       .  S
O405        H437   0.990       .  S
O406        H423   0.990       .  S
O407        H427   0.990       .  S
O407        H436   0.990       .  S
O408        C409   1.277       .  A
C409       C1206   1.459       .  S
O410        H429   0.991       .  S
O410        H433   0.991       .  S
O411        H425   0.990       .  S
O411        H432   0.990       .  S
O412        C416   1.277       .  A
O413        C416   1.286       .  A
O414        H424   0.990       .  S
O415        H428   0.990       .  S
C416       C1222   1.470       .  S
Zr439       O440   2.442       .  S
Zr439       O441   2.422       .  S
Zr439       O442   2.421       .  S
Zr439       O445   2.405       .  S
Zr439       O447   2.373       .  S
Zr439       O448   2.381       .  S
Zr439       O449   2.399       .  S
Zr439       O450   2.396       .  S
O440        H496   0.991       .  S
O440        H504   0.990       .  S
O441        C461   1.282       .  A
O442        C463   1.280       .  A
O443       Zr453   2.451       .  S
O443        C462   1.287       .  A
O444       Zr452   2.434       .  S
O444        C463   1.283       .  A
O445        C462   1.279       .  A
O446       Zr454   2.421       .  S
O446        C461   1.280       .  A
O447       Zr452   2.397       .  S
O447       Zr454   2.382       .  S
O448       Zr453   2.392       .  S
O448       Zr454   2.379       .  S
O448        H483   0.966       .  S
O449       Zr452   2.402       .  S
O449       Zr469   2.397       .  S
O449        H486   0.966       .  S
O450       Zr453   2.396       .  S
O450       Zr469   2.389       .  S
Zr451       O476   2.442       .  S
Zr451       O470   2.424       .  S
Zr451       O478   2.413       .  S
Zr451       O466   2.412       .  S
Zr451       O457   2.401       .  S
Zr451       O458   2.394       .  S
Zr451       O459   2.376       .  S
Zr451       O460   2.378       .  S
Zr452       O471   2.437       .  S
Zr452       O464   2.435       .  S
Zr452       O465   2.435       .  S
Zr452       O458   2.393       .  S
Zr452       O459   2.397       .  S
Zr453       O455   2.434       .  S
Zr453       O477   2.435       .  S
Zr453       O479   2.448       .  S
Zr453       O457   2.397       .  S
Zr453       O460   2.399       .  S
Zr454       O480   2.435       .  S
Zr454       O481   2.436       .  S
Zr454       O456   2.437       .  S
Zr454       O457   2.399       .  S
Zr454       O458   2.382       .  S
O455        H492   0.990       .  S
O456        H487   0.990       .  S
O456        H501   0.990       .  S
O458        H484   0.965       .  S
O459       Zr469   2.381       .  S
O460       Zr469   2.378       .  S
O460        H485   0.966       .  S
C461       C1670   1.473       .  S
C462       C1737   1.471       .  S
C463       C1881   1.467       .  S
O464        H500   0.990       .  S
O465        C467   1.284       .  A
O466        C467   1.280       .  A
C467       C1158   1.461       .  S
O468       Zr469   2.434       .  S
O468        H497   0.990       .  S
Zr469       O472   2.435       .  S
Zr469       O473   2.438       .  S
Zr469       O474   2.419       .  S
O470        C475   1.282       .  A
O471        H488   0.990       .  S
O471        H503   0.990       .  S
O472        H489   0.990       .  S
O473        H493   0.989       .  S
O473        H502   0.990       .  S
O474        C475   1.279       .  A
C475       C1174   1.474       .  S
O476        H495   0.991       .  S
O476        H499   0.990       .  S
O477        H491   0.990       .  S
O477        H498   0.990       .  S
O478        C482   1.279       .  A
O479        C482   1.286       .  A
O480        H490   0.990       .  S
O481        H494   0.990       .  S
C482       C1142   1.474       .  S
Zr505       O506   2.442       .  S
Zr505       O507   2.439       .  S
Zr505       O508   2.433       .  S
Zr505       O511   2.406       .  S
Zr505       O513   2.374       .  S
Zr505       O514   2.383       .  S
Zr505       O515   2.401       .  S
Zr505       O516   2.407       .  S
O506        H562   0.991       .  S
O506        H570   0.990       .  S
O507        C527   1.284       .  A
O508        C529   1.283       .  A
O509       Zr519   2.448       .  S
O509        C528   1.286       .  A
O510       Zr518   2.462       .  S
O510        C529   1.288       .  A
O511        C528   1.279       .  A
O512       Zr520   2.413       .  S
O512        C527   1.279       .  A
O513       Zr518   2.401       .  S
O513       Zr520   2.388       .  S
O514       Zr519   2.397       .  S
O514       Zr520   2.375       .  S
O514        H549   0.966       .  S
O515       Zr518   2.403       .  S
O515       Zr535   2.398       .  S
O515        H552   0.965       .  S
O516       Zr519   2.397       .  S
O516       Zr535   2.399       .  S
Zr517       O542   2.441       .  S
Zr517       O536   2.423       .  S
Zr517       O544   2.414       .  S
Zr517       O532   2.414       .  S
Zr517       O523   2.396       .  S
Zr517       O524   2.400       .  S
Zr517       O525   2.374       .  S
Zr517       O526   2.375       .  S
Zr518       O537   2.435       .  S
Zr518       O530   2.435       .  S
Zr518       O531   2.446       .  S
Zr518       O524   2.408       .  S
Zr518       O525   2.401       .  S
Zr519       O521   2.438       .  S
Zr519       O543   2.437       .  S
Zr519       O545   2.459       .  S
Zr519       O523   2.395       .  S
Zr519       O526   2.391       .  S
Zr520       O546   2.437       .  S
Zr520       O547   2.435       .  S
Zr520       O522   2.436       .  S
Zr520       O523   2.392       .  S
Zr520       O524   2.390       .  S
O521        H558   0.990       .  S
O522        H553   0.990       .  S
O522        H567   0.989       .  S
O524        H550   0.966       .  S
O525       Zr535   2.375       .  S
O526       Zr535   2.372       .  S
O526        H551   0.966       .  S
C527       C1833   1.472       .  S
C528       C1769   1.469       .  S
C529       C1929   1.487       .  S
O530        H566   0.990       .  S
O531        C533   1.286       .  A
O532        C533   1.282       .  A
C533       C1110   1.472       .  S
O534       Zr535   2.438       .  S
O534        H563   0.990       .  S
Zr535       O538   2.436       .  S
Zr535       O539   2.440       .  S
Zr535       O540   2.432       .  S
O536        C541   1.281       .  A
O537        H554   0.990       .  S
O537        H569   0.990       .  S
O538        H555   0.990       .  S
O539        H559   0.990       .  S
O539        H568   0.990       .  S
O540        C541   1.283       .  A
C541       C1129   1.480       .  S
O542        H561   0.990       .  S
O542        H565   0.990       .  S
O543        H557   0.990       .  S
O543        H564   0.990       .  S
O544        C548   1.282       .  A
O545        C548   1.289       .  A
O546        H556   0.990       .  S
O547        H560   0.990       .  S
C548       C1094   1.483       .  S
Zr571       O572   2.441       .  S
Zr571       O573   2.436       .  S
Zr571       O574   2.416       .  S
Zr571       O577   2.419       .  S
Zr571       O579   2.380       .  S
Zr571       O580   2.377       .  S
Zr571       O581   2.403       .  S
Zr571       O582   2.395       .  S
O572        H628   0.990       .  S
O572        H636   0.991       .  S
O573        C593   1.285       .  A
O574        C595   1.280       .  A
O575       Zr585   2.449       .  S
O575        C594   1.287       .  A
O576       Zr584   2.448       .  S
O576        C595   1.286       .  A
O577        C594   1.282       .  A
O578       Zr586   2.418       .  S
O578        C593   1.280       .  A
O579       Zr584   2.402       .  S
O579       Zr586   2.380       .  S
O580       Zr585   2.384       .  S
O580       Zr586   2.379       .  S
O580        H615   0.966       .  S
O581       Zr584   2.403       .  S
O581       Zr601   2.390       .  S
O581        H618   0.965       .  S
O582       Zr585   2.387       .  S
O582       Zr601   2.390       .  S
Zr583       O608   2.445       .  S
Zr583       O602   2.430       .  S
Zr583       O610   2.423       .  S
Zr583       O598   2.428       .  S
Zr583       O589   2.406       .  S
Zr583       O590   2.401       .  S
Zr583       O591   2.375       .  S
Zr583       O592   2.384       .  S
Zr584       O603   2.435       .  S
Zr584       O596   2.436       .  S
Zr584       O597   2.455       .  S
Zr584       O590   2.400       .  S
Zr584       O591   2.396       .  S
Zr585       O587   2.437       .  S
Zr585       O609   2.434       .  S
Zr585       O611   2.423       .  S
Zr585       O589   2.404       .  S
Zr585       O592   2.405       .  S
Zr586       O612   2.434       .  S
Zr586       O613   2.437       .  S
Zr586       O588   2.436       .  S
Zr586       O589   2.396       .  S
Zr586       O590   2.381       .  S
O587        H624   0.990       .  S
O588        H619   0.990       .  S
O588        H633   0.990       .  S
O590        H616   0.965       .  S
O591       Zr601   2.381       .  S
O592       Zr601   2.377       .  S
O592        H617   0.966       .  S
C593       C1721   1.479       .  S
C594       C1817   1.476       .  S
C595       C1974   1.470       .  S
O596        H632   0.990       .  S
O597        C599   1.288       .  A
O598        C599   1.283       .  A
C599       C1062   1.476       .  S
O600       Zr601   2.437       .  S
O600        H629   0.990       .  S
Zr601       O604   2.437       .  S
Zr601       O605   2.439       .  S
Zr601       O606   2.405       .  S
O602        C607   1.282       .  A
O603        H620   0.990       .  S
O603        H635   0.990       .  S
O604        H621   0.990       .  S
O605        H625   0.990       .  S
O605        H634   0.990       .  S
O606        C607   1.277       .  A
C607       C1078   1.465       .  S
O608        H627   0.991       .  S
O608        H631   0.990       .  S
O609        H623   0.988       .  S
O609        H630   0.990       .  S
O610        C614   1.280       .  A
O611        C614   1.281       .  A
O612        H622   0.989       .  S
O613        H626   0.990       .  S
C614       C1046   1.462       .  S
C637        C638   1.396       .  A
C637        C642   1.401       .  A
C637       C1081   1.468       .  S
C638        C639   1.392       .  A
C638        H643   1.085       .  S
C639        C640   1.396       .  A
C639       C1030   1.464       .  S
C640        C641   1.402       .  A
C640        H644   1.083       .  S
C641        C642   1.405       .  A
C641       C1161   1.473       .  S
C642        H645   1.084       .  S
C646        C647   1.395       .  A
C646        C651   1.402       .  A
C646       C1209   1.464       .  S
C647        C648   1.391       .  A
C647        H652   1.083       .  S
C648        C649   1.401       .  A
C648       C1014   1.470       .  S
C649        C650   1.401       .  A
C649        H653   1.084       .  S
C650        C651   1.403       .  A
C650       C1177   1.475       .  S
C651        H654   1.084       .  S
C655        C656   1.397       .  A
C655        C660   1.405       .  A
C655       C1113   1.477       .  S
C656        C657   1.400       .  A
C656        H661   1.082       .  S
C657        C658   1.409       .  A
C657       C1225   1.484       .  S
C658        C659   1.407       .  A
C658        H662   1.082       .  S
C659        C660   1.406       .  A
C659        C998   1.493       .  S
C660        H663   1.084       .  S
C664        C665   1.401       .  A
C664        C669   1.408       .  A
C664       C1126   1.484       .  S
C665        C666   1.400       .  A
C665        H670   1.084       .  S
C666        C667   1.400       .  A
C666        C982   1.481       .  S
C667        C668   1.403       .  A
C667        H671   1.084       .  S
C668        C669   1.406       .  A
C668       C1065   1.479       .  S
C669        H672   1.082       .  S
C673        C674   1.407       .  A
C673        C678   1.408       .  A
C673       C1353   1.489       .  S
C674        C675   1.407       .  A
C674        H679   1.083       .  S
C675        C676   1.405       .  A
C675       C1462   1.487       .  S
C676        C677   1.401       .  A
C676        H680   1.084       .  S
C677        C678   1.404       .  A
C677        C969   1.485       .  S
C678        H681   1.084       .  S
C682        C683   1.398       .  A
C682        C687   1.409       .  A
C682       C1337   1.480       .  S
C683        C684   1.398       .  A
C683        H688   1.083       .  S
C684        C685   1.402       .  A
C684        C953   1.482       .  S
C685        C686   1.405       .  A
C685        H689   1.084       .  S
C686        C687   1.411       .  A
C686       C1305   1.491       .  S
C687        H690   1.083       .  S
C691        C692   1.407       .  A
C691        C696   1.405       .  A
C691       C1289   1.488       .  S
C692        C693   1.409       .  A
C692        H697   1.083       .  S
C693        C694   1.407       .  A
C693       C1398   1.489       .  S
C694        C695   1.404       .  A
C694        H698   1.084       .  S
C695        C696   1.403       .  A
C695        C937   1.485       .  S
C696        H699   1.084       .  S
C700        C701   1.405       .  A
C700        C705   1.401       .  A
C700       C1478   1.483       .  S
C701        C702   1.403       .  A
C701        H706   1.084       .  S
C702        C703   1.405       .  A
C702       C1385   1.477       .  S
C703        C704   1.401       .  A
C703        H707   1.084       .  S
C704        C705   1.400       .  A
C704        C918   1.478       .  S
C705        H708   1.083       .  S
C709        C710   1.397       .  A
C709        C714   1.399       .  A
C709       C1270   1.467       .  S
C710        C711   1.399       .  A
C710        H715   1.084       .  S
C711        C712   1.406       .  A
C711       C1049   1.472       .  S
C712        C713   1.401       .  A
C712        H716   1.083       .  S
C713        C714   1.399       .  A
C713        C902   1.478       .  S
C714        H717   1.085       .  S
C718        C719   1.402       .  A
C718        C723   1.402       .  A
C718       C1321   1.478       .  S
C719        C720   1.403       .  A
C719        H724   1.084       .  S
C720        C721   1.404       .  A
C720        C886   1.491       .  S
C721        C722   1.409       .  A
C721        H725   1.077       .  S
C722        C723   1.408       .  A
C722       C1097   1.496       .  S
C723        H726   1.084       .  S
C727        C728   1.401       .  A
C727        C732   1.406       .  A
C727       C1366   1.480       .  S
C728        C729   1.398       .  A
C728        H733   1.084       .  S
C729        C730   1.401       .  A
C729        C870   1.480       .  S
C730        C731   1.406       .  A
C730        H734   1.084       .  S
C731        C732   1.406       .  A
C731       C1145   1.485       .  S
C732        H735   1.083       .  S
C736        C737   1.397       .  A
C736        C741   1.403       .  A
C736       C1449   1.474       .  S
C737        C738   1.400       .  A
C737        H742   1.084       .  S
C738        C739   1.408       .  A
C738       C1193   1.478       .  S
C739        C740   1.410       .  A
C739        H743   1.084       .  S
C740        C741   1.403       .  A
C740        C854   1.494       .  S
C741        H744   1.081       .  S
O745       Zr781   2.460   1_566  S
O745        C756   1.298       .  A
O746       Zr780   2.437   1_565  S
O746        C757   1.290       .  A
O747       Zr753   2.435   1_556  S
O747        C758   1.293       .  A
O748       Zr753   2.413       .  S
O748        C759   1.289       .  A
O749       Zr783   2.481   1_565  S
O749        C759   1.299       .  A
O750       Zr782   2.426   1_565  S
O750        C758   1.287       .  A
O751       Zr753   2.438   1_455  S
O751        C757   1.293       .  A
O752       Zr753   2.428   1_556  S
O752        C756   1.288       .  A
Zr753       O754   2.337   1_665  S
Zr753       O755   2.336   1_564  S
Zr753       O763   2.345       .  S
Zr753       O761   2.325   1_664  S
O754       Zr780   2.338       .  S
O754       Zr783   2.336   1_455  S
O755       Zr781   2.340   1_556  S
O755       Zr782   2.334       .  S
C756       C1993   1.501       .  S
C757       C1897   1.492       .  S
C758       C1753   1.494       .  S
C759       C1654   1.497       .  S
H760        O761   0.965   1_565  S
O761       Zr780   2.329   1_556  S
O761       Zr782   2.331   1_455  S
H762        O763   0.966       .  S
O763       Zr781   2.346   1_565  S
O763       Zr783   2.341   1_565  S
O764       Zr780   2.427       .  S
O764        C787   1.291       .  A
O765       Zr781   2.455       .  S
O765        C788   1.294       .  A
O766       Zr782   2.438   1_455  S
O766        C789   1.293       .  A
O767       Zr783   2.462   1_455  S
O767        C790   1.297       .  A
O768       Zr783   2.459       .  S
O768        C791   1.297       .  A
O769       Zr782   2.435       .  S
O769        C792   1.292       .  A
O770       Zr784   2.484   1_556  S
O770        C793   1.299       .  A
O771       Zr784   2.458       .  S
O771        C794   1.298       .  A
O772       Zr782   2.421       .  S
O772        C793   1.290       .  A
O773       Zr783   2.424       .  S
O773        C794   1.288       .  A
O774       Zr780   2.432   1_556  S
O774        C789   1.289       .  A
O775       Zr781   2.443   1_556  S
O775        C792   1.292       .  A
O776       Zr781   2.441       .  S
O776        C791   1.291       .  A
O777       Zr780   2.429       .  S
O777        C790   1.289       .  A
O778       Zr784   2.475   1_455  S
O778        C787   1.298       .  A
O779       Zr784   2.456       .  S
O779        C788   1.297       .  A
Zr780       O786   2.342   1_554  S
Zr780       O798   2.338       .  S
Zr781       O785   2.340       .  S
Zr781       O796   2.346   1_554  S
Zr782       O786   2.338   1_655  S
Zr782       O796   2.339       .  S
Zr783       O785   2.353       .  S
Zr783       O798   2.363   1_655  S
Zr784       O785   2.356       .  S
Zr784       O786   2.340   1_654  S
Zr784       O798   2.361   1_655  S
Zr784       O796   2.350   1_554  S
C787       C1238   1.499       .  S
C788       C1945   1.503       .  S
C789       C1702   1.490       .  S
C790       C1417   1.497       .  S
C791       C1609   1.501       .  S
C792       C1849   1.487       .  S
C793       C1801   1.505       .  S
C794       C1529   1.491       .  S
H795        O796   0.966       .  S
H797        O798   0.966       .  S
O799       Zr835   2.425       .  S
O799        C810   1.286       .  A
O800       Zr834   2.483       .  S
O800        C811   1.301       .  A
O801       Zr807   2.434       .  S
O801        C812   1.289       .  A
O802       Zr807   2.443       .  S
O802        C813   1.291       .  A
O803       Zr837   2.439       .  S
O803        C813   1.293       .  A
O804       Zr836   2.428       .  S
O804        C812   1.290       .  A
O805       Zr807   2.417       .  S
O805        C811   1.287       .  A
O806       Zr807   2.430       .  S
O806        C810   1.293       .  A
Zr807       O808   2.338       .  S
Zr807       O809   2.330       .  S
Zr807       O817   2.327       .  S
Zr807       O815   2.339       .  S
O808       Zr834   2.350       .  S
O808       Zr837   2.341       .  S
O809       Zr835   2.330       .  S
O809       Zr836   2.331       .  S
C810       C1033   1.496       .  S
C811       C1001   1.495       .  S
C812       C1017   1.482       .  S
C813        C985   1.488       .  S
H814        O815   0.966       .  S
O815       Zr834   2.341       .  S
O815       Zr836   2.345       .  S
H816        O817   0.965       .  S
O817       Zr835   2.333       .  S
O817       Zr837   2.336       .  S
O818       Zr834   2.458       .  S
O818        C841   1.294       .  A
O819       Zr835   2.421       .  S
O819        C842   1.290       .  A
O820       Zr836   2.424       .  S
O820        C843   1.291       .  A
O821       Zr837   2.450       .  S
O821        C844   1.294       .  A
O822       Zr837   2.449       .  S
O822        C845   1.294       .  A
O823       Zr836   2.441       .  S
O823        C846   1.291       .  A
O824       Zr838   2.443       .  S
O824        C847   1.291       .  A
O825       Zr838   2.443       .  S
O825        C848   1.294       .  A
O826       Zr836   2.432       .  S
O826        C847   1.293       .  A
O827       Zr837   2.420       .  S
O827        C848   1.287       .  A
O828       Zr834   2.467       .  S
O828        C843   1.297       .  A
O829       Zr835   2.440       .  S
O829        C846   1.293       .  A
O830       Zr835   2.425       .  S
O830        C845   1.288       .  A
O831       Zr834   2.446       .  S
O831        C844   1.294       .  A
O832       Zr838   2.437       .  S
O832        C841   1.294       .  A
O833       Zr838   2.458       .  S
O833        C842   1.293       .  A
Zr834       O840   2.352       .  S
Zr834       O852   2.358       .  S
Zr835       O839   2.338       .  S
Zr835       O850   2.335       .  S
Zr836       O840   2.335       .  S
Zr836       O850   2.337       .  S
Zr837       O839   2.341       .  S
Zr837       O852   2.345       .  S
Zr838       O839   2.335       .  S
Zr838       O840   2.347       .  S
Zr838       O852   2.349       .  S
Zr838       O850   2.339       .  S
C841        C966   1.511       .  S
C842        C934   1.504       .  S
C843        C857   1.490       .  S
C844        C889   1.489       .  S
C845        C905   1.484       .  S
C846        C873   1.492       .  S
C847        C921   1.497       .  S
C848        C950   1.481       .  S
H849        O850   0.966       .  S
H851        O852   0.966       .  S
C853        C854   1.407       .  A
C853        C858   1.412       .  A
C853        H860   1.083       .  S
C854        C855   1.422       .  A
C855        C856   1.407       .  A
C855        C862   1.523       .  S
C856        C857   1.406       .  A
C856        H861   1.083       .  S
C857        C858   1.418       .  A
C858        C859   1.518       .  S
C859        F863   1.385       .  S
C859        F864   1.384       .  S
C859        F865   1.382       .  S
C862        F866   1.383       .  S
C862        F867   1.380       .  S
C862        F868   1.385       .  S
C869        C870   1.399       .  A
C869        C874   1.406       .  A
C869        H876   1.083       .  S
C870        C871   1.414       .  A
C871        C872   1.409       .  A
C871        C878   1.520       .  S
C872        C873   1.410       .  A
C872        H877   1.083       .  S
C873        C874   1.425       .  A
C874        C875   1.520       .  S
C875        F879   1.385       .  S
C875        F880   1.383       .  S
C875        F881   1.383       .  S
C878        F882   1.384       .  S
C878        F883   1.381       .  S
C878        F884   1.384       .  S
C885        C886   1.405       .  A
C885        C890   1.406       .  A
C885        H892   1.083       .  S
C886        C887   1.419       .  A
C887        C888   1.410       .  A
C887        C894   1.521       .  S
C888        C889   1.407       .  A
C888        H893   1.083       .  S
C889        C890   1.420       .  A
C890        C891   1.521       .  S
C891        F895   1.386       .  S
C891        F896   1.382       .  S
C891        F897   1.384       .  S
C894        F898   1.380       .  S
C894        F899   1.383       .  S
C894        F900   1.385       .  S
C901        C902   1.400       .  A
C901        C906   1.403       .  A
C901        H908   1.084       .  S
C902        C903   1.414       .  A
C903        C904   1.408       .  A
C903        C910   1.519       .  S
C904        C905   1.407       .  A
C904        H909   1.083       .  S
C905        C906   1.423       .  A
C906        C907   1.522       .  S
C907        F911   1.385       .  S
C907        F912   1.382       .  S
C907        F913   1.383       .  S
C910        F914   1.382       .  S
C910        F915   1.383       .  S
C910        F916   1.385       .  S
C917        C918   1.399       .  A
C917        C922   1.408       .  A
C917        H924   1.083       .  S
C918        C919   1.412       .  A
C919        C920   1.403       .  A
C919        C926   1.518       .  S
C920        C921   1.410       .  A
C920        H925   1.082       .  S
C921        C922   1.427       .  A
C922        C923   1.519       .  S
C923        F927   1.385       .  S
C923        F928   1.382       .  S
C923        F929   1.381       .  S
C926        F930   1.385       .  S
C926        F931   1.383       .  S
C926        F932   1.380       .  S
C933        C934   1.414       .  A
C933        C938   1.404       .  A
C933        H940   1.082       .  S
C934        C935   1.428       .  A
C935        C936   1.412       .  A
C935        C942   1.520       .  S
C936        C937   1.402       .  A
C936        H941   1.083       .  S
C937        C938   1.412       .  A
C938        C939   1.519       .  S
C939        F943   1.385       .  S
C939        F944   1.380       .  S
C939        F945   1.383       .  S
C942        F946   1.381       .  S
C942        F947   1.384       .  S
C942        F948   1.385       .  S
C949        C950   1.404       .  A
C949        C954   1.403       .  A
C949        H956   1.085       .  S
C950        C951   1.422       .  A
C951        C952   1.404       .  A
C951        C958   1.523       .  S
C952        C953   1.403       .  A
C952        H957   1.083       .  S
C953        C954   1.419       .  A
C954        C955   1.520       .  S
C955        F959   1.384       .  S
C955        F960   1.383       .  S
C955        F961   1.383       .  S
C958        F962   1.382       .  S
C958        F963   1.383       .  S
C958        F964   1.385       .  S
C965        C966   1.414       .  A
C965        C970   1.404       .  A
C965        H972   1.081       .  S
C966        C967   1.432       .  A
C967        C968   1.415       .  A
C967        C974   1.521       .  S
C968        C969   1.400       .  A
C968        H973   1.083       .  S
C969        C970   1.410       .  A
C970        C971   1.518       .  S
C971        F975   1.384       .  S
C971        F976   1.383       .  S
C971        F977   1.380       .  S
C974        F978   1.384       .  S
C974        F979   1.384       .  S
C974        F980   1.385       .  S
C981        C982   1.401       .  A
C981        C986   1.406       .  A
C981        H988   1.083       .  S
C982        C983   1.416       .  A
C983        C984   1.403       .  A
C983        C990   1.519       .  S
C984        C985   1.406       .  A
C984        H989   1.084       .  S
C985        C986   1.424       .  A
C986        C987   1.518       .  S
C987        F991   1.385       .  S
C987        F992   1.381       .  S
C987        F993   1.383       .  S
C990        F994   1.382       .  S
C990        F995   1.383       .  S
C990        F996   1.384       .  S
C997        C998   1.401       .  A
C997       C1002   1.406       .  A
C997       H1004   1.084       .  S
C998        C999   1.420       .  A
C999       C1000   1.414       .  A
C999       C1006   1.518       .  S
C1000      C1001   1.406       .  A
C1000      H1005   1.082       .  S
C1001      C1002   1.426       .  A
C1002      C1003   1.523       .  S
C1003      F1007   1.381       .  S
C1003      F1008   1.384       .  S
C1003      F1009   1.385       .  S
C1006      F1010   1.381       .  S
C1006      F1011   1.383       .  S
C1006      F1012   1.384       .  S
C1013      C1014   1.396       .  A
C1013      C1018   1.398       .  A
C1013      H1020   1.082       .  S
C1014      C1015   1.414       .  A
C1015      C1016   1.407       .  A
C1015      C1022   1.521       .  S
C1016      C1017   1.409       .  A
C1016      H1021   1.083       .  S
C1017      C1018   1.423       .  A
C1018      C1019   1.520       .  S
C1019      F1023   1.385       .  S
C1019      F1024   1.382       .  S
C1019      F1025   1.383       .  S
C1022      F1026   1.384       .  S
C1022      F1027   1.382       .  S
C1022      F1028   1.384       .  S
C1029      C1030   1.397       .  A
C1029      C1034   1.407       .  A
C1029      H1036   1.083       .  S
C1030      C1031   1.405       .  A
C1031      C1032   1.396       .  A
C1031      C1038   1.520       .  S
C1032      C1033   1.412       .  A
C1032      H1037   1.079       .  S
C1033      C1034   1.431       .  A
C1034      C1035   1.523       .  S
C1035      F1039   1.386       .  S
C1035      F1040   1.383       .  S
C1035      F1041   1.383       .  S
C1038      F1042   1.381       .  S
C1038      F1043   1.383       .  S
C1038      F1044   1.384       .  S
C1045      C1046   1.399       .  A
C1045      C1050   1.402       .  A
C1045      H1052   1.085       .  S
C1046      C1047   1.413       .  A
C1047      C1048   1.401       .  A
C1047      C1054   1.517       .  S
C1048      C1049   1.402       .  A
C1048      H1053   1.084       .  S
C1049      C1050   1.417       .  A
C1050      C1051   1.517       .  S
C1051      F1055   1.384       .  S
C1051      F1056   1.383       .  S
C1051      F1057   1.383       .  S
C1054      F1058   1.382       .  S
C1054      F1059   1.382       .  S
C1054      F1060   1.385       .  S
C1061      C1062   1.402       .  A
C1061      C1066   1.409       .  A
C1061      H1068   1.083       .  S
C1062      C1063   1.417       .  A
C1063      C1064   1.407       .  A
C1063      C1070   1.517       .  S
C1064      C1065   1.401       .  A
C1064      H1069   1.084       .  S
C1065      C1066   1.415       .  A
C1066      C1067   1.516       .  S
C1067      F1071   1.384       .  S
C1067      F1072   1.383       .  S
C1067      F1073   1.382       .  S
C1070      F1074   1.383       .  S
C1070      F1075   1.382       .  S
C1070      F1076   1.385       .  S
C1077      C1078   1.402       .  A
C1077      C1082   1.404       .  A
C1077      H1084   1.083       .  S
C1078      C1079   1.415       .  A
C1079      C1080   1.402       .  A
C1079      C1086   1.519       .  S
C1080      C1081   1.401       .  A
C1080      H1085   1.084       .  S
C1081      C1082   1.415       .  A
C1082      C1083   1.520       .  S
C1083      F1087   1.384       .  S
C1083      F1088   1.382       .  S
C1083      F1089   1.383       .  S
C1086      F1090   1.383       .  S
C1086      F1091   1.382       .  S
C1086      F1092   1.384       .  S
C1093      C1094   1.403       .  A
C1093      C1098   1.405       .  A
C1093      H1100   1.085       .  S
C1094      C1095   1.415       .  A
C1095      C1096   1.410       .  A
C1095      C1102   1.517       .  S
C1096      C1097   1.409       .  A
C1096      H1101   1.082       .  S
C1097      C1098   1.423       .  A
C1098      C1099   1.520       .  S
C1099      F1103   1.384       .  S
C1099      F1104   1.383       .  S
C1099      F1105   1.383       .  S
C1102      F1106   1.383       .  S
C1102      F1107   1.382       .  S
C1102      F1108   1.385       .  S
C1109      C1110   1.403       .  A
C1109      C1114   1.400       .  A
C1109      H1116   1.084       .  S
C1110      C1111   1.420       .  A
C1111      C1112   1.408       .  A
C1111      C1118   1.517       .  S
C1112      C1113   1.404       .  A
C1112      H1117   1.085       .  S
C1113      C1114   1.413       .  A
C1114      C1115   1.518       .  S
C1115      F1119   1.385       .  S
C1115      F1120   1.381       .  S
C1115      F1121   1.382       .  S
C1118      F1122   1.379       .  S
C1118      F1123   1.384       .  S
C1118      F1124   1.383       .  S
C1125      C1126   1.405       .  A
C1125      C1130   1.407       .  A
C1125      H1132   1.083       .  S
C1126      C1127   1.418       .  A
C1127      C1128   1.408       .  A
C1127      C1134   1.520       .  S
C1128      C1129   1.403       .  A
C1128      H1133   1.083       .  S
C1129      C1130   1.418       .  A
C1130      C1131   1.519       .  S
C1131      F1135   1.385       .  S
C1131      F1136   1.383       .  S
C1131      F1137   1.383       .  S
C1134      F1138   1.381       .  S
C1134      F1139   1.384       .  S
C1134      F1140   1.384       .  S
C1141      C1142   1.401       .  A
C1141      C1146   1.405       .  A
C1141      H1148   1.084       .  S
C1142      C1143   1.414       .  A
C1143      C1144   1.410       .  A
C1143      C1150   1.516       .  S
C1144      C1145   1.406       .  A
C1144      H1149   1.083       .  S
C1145      C1146   1.418       .  A
C1146      C1147   1.520       .  S
C1147      F1151   1.385       .  S
C1147      F1152   1.380       .  S
C1147      F1153   1.383       .  S
C1150      F1154   1.383       .  S
C1150      F1155   1.383       .  S
C1150      F1156   1.385       .  S
C1157      C1158   1.399       .  A
C1157      C1162   1.404       .  A
C1157      H1164   1.084       .  S
C1158      C1159   1.414       .  A
C1159      C1160   1.401       .  A
C1159      C1166   1.519       .  S
C1160      C1161   1.401       .  A
C1160      H1165   1.083       .  S
C1161      C1162   1.417       .  A
C1162      C1163   1.517       .  S
C1163      F1167   1.384       .  S
C1163      F1168   1.383       .  S
C1163      F1169   1.380       .  S
C1166      F1170   1.383       .  S
C1166      F1171   1.382       .  S
C1166      F1172   1.385       .  S
C1173      C1174   1.401       .  A
C1173      C1178   1.402       .  A
C1173      H1180   1.084       .  S
C1174      C1175   1.418       .  A
C1175      C1176   1.408       .  A
C1175      C1182   1.518       .  S
C1176      C1177   1.402       .  A
C1176      H1181   1.083       .  S
C1177      C1178   1.416       .  A
C1178      C1179   1.520       .  S
C1179      F1183   1.384       .  S
C1179      F1184   1.380       .  S
C1179      F1185   1.383       .  S
C1182      F1186   1.383       .  S
C1182      F1187   1.382       .  S
C1182      F1188   1.385       .  S
C1189      C1190   1.402       .  A
C1189      C1194   1.409       .  A
C1189      H1196   1.083       .  S
C1190      C1191   1.416       .  A
C1191      C1192   1.404       .  A
C1191      C1198   1.518       .  S
C1192      C1193   1.401       .  A
C1192      H1197   1.083       .  S
C1193      C1194   1.414       .  A
C1194      C1195   1.515       .  S
C1195      F1199   1.384       .  S
C1195      F1200   1.383       .  S
C1195      F1201   1.382       .  S
C1198      F1202   1.383       .  S
C1198      F1203   1.382       .  S
C1198      F1204   1.385       .  S
C1205      C1206   1.400       .  A
C1205      C1210   1.400       .  A
C1205      H1212   1.084       .  S
C1206      C1207   1.411       .  A
C1207      C1208   1.402       .  A
C1207      C1214   1.518       .  S
C1208      C1209   1.401       .  A
C1208      H1213   1.084       .  S
C1209      C1210   1.414       .  A
C1210      C1211   1.519       .  S
C1211      F1215   1.385       .  S
C1211      F1216   1.383       .  S
C1211      F1217   1.382       .  S
C1214      F1218   1.382       .  S
C1214      F1219   1.384       .  S
C1214      F1220   1.384       .  S
C1221      C1222   1.398       .  A
C1221      C1226   1.405       .  A
C1221      H1228   1.084       .  S
C1222      C1223   1.414       .  A
C1223      C1224   1.407       .  A
C1223      C1230   1.517       .  S
C1224      C1225   1.404       .  A
C1224      H1229   1.083       .  S
C1225      C1226   1.422       .  A
C1226      C1227   1.521       .  S
C1227      F1231   1.385       .  S
C1227      F1232   1.381       .  S
C1227      F1233   1.383       .  S
C1230      F1234   1.383       .  S
C1230      F1235   1.382       .  S
C1230      F1236   1.385       .  S
C1237      C1238   1.409   1_556  A
C1237      C1242   1.409       .  A
C1237      H1244   1.083       .  S
C1238      C1239   1.420       .  A
C1239      C1240   1.414       .  A
C1239      C1246   1.517       .  S
C1240      C1241   1.406       .  A
C1240      H1245   1.083       .  S
C1241      C1242   1.418   1_554  A
C1242      C1243   1.523       .  S
C1243      F1247   1.385       .  S
C1243      F1248   1.384       .  S
C1243      F1249   1.380       .  S
C1246      F1250   1.384       .  S
C1246      F1251   1.382       .  S
C1246      F1252   1.384       .  S
C1253      C1254   1.404       .  A
C1253      C1258   1.406       .  A
C1253      H1260   1.084       .  S
C1254      C1255   1.414       .  A
C1255      C1256   1.412       .  A
C1255      C1262   1.516       .  S
C1256      C1257   1.406       .  A
C1256      H1261   1.083       .  S
C1257      C1258   1.415       .  A
C1258      C1259   1.519       .  S
C1259      F1263   1.385       .  S
C1259      F1264   1.383       .  S
C1259      F1265   1.381       .  S
C1262      F1266   1.383       .  S
C1262      F1267   1.383       .  S
C1262      F1268   1.384       .  S
C1269      C1270   1.399       .  A
C1269      C1274   1.400       .  A
C1269      H1276   1.084       .  S
C1270      C1271   1.412       .  A
C1271      C1272   1.404       .  A
C1271      C1278   1.517       .  S
C1272      C1273   1.402       .  A
C1272      H1277   1.083       .  S
C1273      C1274   1.416       .  A
C1274      C1275   1.519       .  S
C1275      F1279   1.385       .  S
C1275      F1280   1.382       .  S
C1275      F1281   1.383       .  S
C1278      F1282   1.383       .  S
C1278      F1283   1.382       .  S
C1278      F1284   1.385       .  S
C1285      C1286   1.408       .  A
C1285      C1290   1.408       .  A
C1285      H1292   1.084       .  S
C1286      C1287   1.419       .  A
C1287      C1288   1.414       .  A
C1287      C1294   1.514       .  S
C1288      C1289   1.404       .  A
C1288      H1293   1.083       .  S
C1289      C1290   1.416       .  A
C1290      C1291   1.521       .  S
C1291      F1295   1.385       .  S
C1291      F1296   1.383       .  S
C1291      F1297   1.382       .  S
C1294      F1298   1.382       .  S
C1294      F1299   1.381       .  S
C1294      F1300   1.385       .  S
C1301      C1302   1.402       .  A
C1301      C1306   1.405       .  A
C1301      H1308   1.085       .  S
C1302      C1303   1.417       .  A
C1303      C1304   1.411       .  A
C1303      C1310   1.517       .  S
C1304      C1305   1.404       .  A
C1304      H1309   1.083       .  S
C1305      C1306   1.423       .  A
C1306      C1307   1.520       .  S
C1307      F1311   1.384       .  S
C1307      F1312   1.383       .  S
C1307      F1313   1.383       .  S
C1310      F1314   1.382       .  S
C1310      F1315   1.383       .  S
C1310      F1316   1.384       .  S
C1317      C1318   1.400       .  A
C1317      C1322   1.406       .  A
C1317      H1324   1.084       .  S
C1318      C1319   1.414       .  A
C1319      C1320   1.406       .  A
C1319      C1326   1.518       .  S
C1320      C1321   1.402       .  A
C1320      H1325   1.083       .  S
C1321      C1322   1.417       .  A
C1322      C1323   1.517       .  S
C1323      F1327   1.384       .  S
C1323      F1328   1.383       .  S
C1323      F1329   1.382       .  S
C1326      F1330   1.383       .  S
C1326      F1331   1.383       .  S
C1326      F1332   1.384       .  S
C1333      C1334   1.403       .  A
C1333      C1338   1.410       .  A
C1333      H1340   1.083       .  S
C1334      C1335   1.413       .  A
C1335      C1336   1.407       .  A
C1335      C1342   1.517       .  S
C1336      C1337   1.403       .  A
C1336      H1341   1.083       .  S
C1337      C1338   1.415       .  A
C1338      C1339   1.517       .  S
C1339      F1343   1.384       .  S
C1339      F1344   1.384       .  S
C1339      F1345   1.382       .  S
C1342      F1346   1.383       .  S
C1342      F1347   1.382       .  S
C1342      F1348   1.384       .  S
C1349      C1350   1.402       .  A
C1349      C1354   1.408       .  A
C1349      H1356   1.083       .  S
C1350      C1351   1.415       .  A
C1351      C1352   1.410       .  A
C1351      C1358   1.518       .  S
C1352      C1353   1.405       .  A
C1352      H1357   1.083       .  S
C1353      C1354   1.420       .  A
C1354      C1355   1.517       .  S
C1355      F1359   1.384       .  S
C1355      F1360   1.383       .  S
C1355      F1361   1.383       .  S
C1358      F1362   1.383       .  S
C1358      F1363   1.383       .  S
C1358      F1364   1.384       .  S
C1365      C1366   1.406       .  A
C1365      C1370   1.408       .  A
C1365      H1372   1.083       .  S
C1366      C1367   1.418       .  A
C1367      C1368   1.403       .  A
C1367      C1374   1.520       .  S
C1368      C1369   1.399       .  A
C1368      H1373   1.084       .  S
C1369      C1370   1.415       .  A
C1370      C1371   1.520       .  S
C1371      F1375   1.384       .  S
C1371      F1376   1.383       .  S
C1371      F1377   1.383       .  S
C1374      F1378   1.383       .  S
C1374      F1379   1.381       .  S
C1374      F1380   1.385       .  S
C1381      C1382   1.401       .  A
C1381      C1386   1.406       .  A
C1381      H1388   1.084       .  S
C1382      C1383   1.415       .  A
C1383      C1384   1.406       .  A
C1383      C1390   1.520       .  S
C1384      C1385   1.402       .  A
C1384      H1389   1.083       .  S
C1385      C1386   1.415       .  A
C1386      C1387   1.516       .  S
C1387      F1391   1.384       .  S
C1387      F1392   1.380       .  S
C1387      F1393   1.383       .  S
C1390      F1394   1.381       .  S
C1390      F1395   1.383       .  S
C1390      F1396   1.384       .  S
C1397      C1398   1.404       .  A
C1397      C1402   1.409       .  A
C1397      H1404   1.083       .  S
C1398      C1399   1.422       .  A
C1399      C1400   1.410       .  A
C1399      C1406   1.518       .  S
C1400      C1401   1.401       .  A
C1400      H1405   1.085       .  S
C1401      C1402   1.416       .  A
C1402      C1403   1.517       .  S
C1403      F1407   1.384       .  S
C1403      F1408   1.383       .  S
C1403      F1409   1.381       .  S
C1406      F1410   1.382       .  S
C1406      F1411   1.383       .  S
C1406      F1412   1.383       .  S
C1413      C1414   1.400       .  A
C1413      C1418   1.405       .  A
C1413      H1420   1.084       .  S
C1414      C1415   1.415       .  A
C1415      C1416   1.411       .  A
C1415      C1422   1.518   1_545  S
C1416      C1417   1.409       .  A
C1416      H1421   1.081       .  S
C1417      C1418   1.426       .  A
C1418      C1419   1.522       .  S
C1419      F1423   1.381       .  S
C1419      F1424   1.384       .  S
C1419      F1425   1.385       .  S
C1422      F1426   1.383   1_565  S
C1422      F1427   1.382       .  S
C1422      F1428   1.384       .  S
C1429      C1430   1.402       .  A
C1429      C1434   1.406       .  A
C1429      H1436   1.083       .  S
C1430      C1431   1.418       .  A
C1431      C1432   1.410       .  A
C1431      C1438   1.518       .  S
C1432      C1433   1.401       .  A
C1432      H1437   1.083       .  S
C1433      C1434   1.415       .  A
C1434      C1435   1.518       .  S
C1435      F1439   1.384       .  S
C1435      F1440   1.383       .  S
C1435      F1441   1.382       .  S
C1438      F1442   1.383       .  S
C1438      F1443   1.381       .  S
C1438      F1444   1.385       .  S
C1445      C1446   1.401       .  A
C1445      C1450   1.406       .  A
C1445      H1452   1.083       .  S
C1446      C1447   1.414       .  A
C1447      C1448   1.405       .  A
C1447      C1454   1.516       .  S
C1448      C1449   1.400       .  A
C1448      H1453   1.083       .  S
C1449      C1450   1.414       .  A
C1450      C1451   1.517       .  S
C1451      F1455   1.384       .  S
C1451      F1456   1.382       .  S
C1451      F1457   1.383       .  S
C1454      F1458   1.382       .  S
C1454      F1459   1.383       .  S
C1454      F1460   1.385       .  S
C1461      C1462   1.406       .  A
C1461      C1466   1.408       .  A
C1461      H1468   1.083       .  S
C1462      C1463   1.419       .  A
C1463      C1464   1.410       .  A
C1463      C1470   1.520       .  S
C1464      C1465   1.402       .  A
C1464      H1469   1.083       .  S
C1465      C1466   1.414       .  A
C1466      C1467   1.517       .  S
C1467      F1471   1.384       .  S
C1467      F1472   1.383       .  S
C1467      F1473   1.383       .  S
C1470      F1474   1.384       .  S
C1470      F1475   1.381       .  S
C1470      F1476   1.384       .  S
C1477      C1478   1.403       .  A
C1477      C1482   1.407       .  A
C1477      H1484   1.083       .  S
C1478      C1479   1.420       .  A
C1479      C1480   1.404       .  A
C1479      C1486   1.520       .  S
C1480      C1481   1.403       .  A
C1480      H1485   1.084       .  S
C1481      C1482   1.417       .  A
C1482      C1483   1.517       .  S
C1483      F1487   1.385       .  S
C1483      F1488   1.381       .  S
C1483      F1489   1.383       .  S
C1486      F1490   1.383       .  S
C1486      F1491   1.383       .  S
C1486      F1492   1.385       .  S
C1493      C1494   1.405       .  A
C1493      C1498   1.407       .  A
C1493      H1500   1.083       .  S
C1494      C1495   1.419       .  A
C1495      C1496   1.409       .  A
C1495      C1502   1.520       .  S
C1496      C1497   1.403       .  A
C1496      H1501   1.083       .  S
C1497      C1498   1.413       .  A
C1498      C1499   1.516       .  S
C1499      F1503   1.385       .  S
C1499      F1504   1.383       .  S
C1499      F1505   1.383       .  S
C1502      F1506   1.383       .  S
C1502      F1507   1.381       .  S
C1502      F1508   1.385       .  S
C1509      C1510   1.400       .  A
C1509      C1514   1.400       .  A
C1509      H1516   1.085       .  S
C1510      C1511   1.419       .  A
C1511      C1512   1.410       .  A
C1511      C1518   1.518       .  S
C1512      C1513   1.404       .  A
C1512      H1517   1.083       .  S
C1513      C1514   1.419       .  A
C1514      C1515   1.518       .  S
C1515      F1519   1.384       .  S
C1515      F1520   1.383       .  S
C1515      F1521   1.383       .  S
C1518      F1522   1.383       .  S
C1518      F1523   1.383       .  S
C1518      F1524   1.385       .  S
C1525      C1526   1.399       .  A
C1525      C1530   1.405       .  A
C1525      H1532   1.084       .  S
C1526      C1527   1.416       .  A
C1527      C1528   1.408       .  A
C1527      C1534   1.518       .  S
C1528      C1529   1.407       .  A
C1528      H1533   1.082       .  S
C1529      C1530   1.427       .  A
C1530      C1531   1.523       .  S
C1531      F1535   1.385       .  S
C1531      F1536   1.383       .  S
C1531      F1537   1.383       .  S
C1534      F1538   1.381   1_655  S
C1534      F1539   1.383       .  S
C1534      F1540   1.384   1_655  S
C1541      C1542   1.404       .  A
C1541      C1546   1.406       .  A
C1541      H1548   1.083       .  S
C1542      C1543   1.420       .  A
C1543      C1544   1.408       .  A
C1543      C1550   1.521       .  S
C1544      C1545   1.401       .  A
C1544      H1549   1.083       .  S
C1545      C1546   1.414       .  A
C1546      C1547   1.518       .  S
C1547      F1551   1.385       .  S
C1547      F1552   1.382       .  S
C1547      F1553   1.383       .  S
C1550      F1554   1.383       .  S
C1550      F1555   1.381       .  S
C1550      F1556   1.385       .  S
C1557      C1558   1.399       .  A
C1557      C1562   1.403       .  A
C1557      H1564   1.084       .  S
C1558      C1559   1.414       .  A
C1559      C1560   1.409       .  A
C1559      C1566   1.516       .  S
C1560      C1561   1.403       .  A
C1560      H1565   1.083       .  S
C1561      C1562   1.416       .  A
C1562      C1563   1.518       .  S
C1563      F1567   1.385       .  S
C1563      F1568   1.381       .  S
C1563      F1569   1.382       .  S
C1566      F1570   1.383       .  S
C1566      F1571   1.383       .  S
C1566      F1572   1.384       .  S
C1573      C1574   1.406       .  A
C1573      C1578   1.410       .  A
C1573      H1580   1.083       .  S
C1574      C1575   1.420       .  A
C1575      C1576   1.406       .  A
C1575      C1582   1.516       .  S
C1576      C1577   1.400       .  A
C1576      H1581   1.085       .  S
C1577      C1578   1.415       .  A
C1578      C1579   1.517       .  S
C1579      F1583   1.385       .  S
C1579      F1584   1.383       .  S
C1579      F1585   1.383       .  S
C1582      F1586   1.382       .  S
C1582      F1587   1.382       .  S
C1582      F1588   1.385       .  S
C1589      C1590   1.405       .  A
C1589      C1594   1.413       .  A
C1589      H1596   1.083       .  S
C1590      C1591   1.417       .  A
C1591      C1592   1.407       .  A
C1591      C1598   1.518       .  S
C1592      C1593   1.404       .  A
C1592      H1597   1.083       .  S
C1593      C1594   1.419       .  A
C1594      C1595   1.519       .  S
C1595      F1599   1.385       .  S
C1595      F1600   1.383       .  S
C1595      F1601   1.382       .  S
C1598      F1602   1.382       .  S
C1598      F1603   1.383       .  S
C1598      F1604   1.385       .  S
C1605      C1606   1.399       .  A
C1605      C1610   1.409       .  A
C1605      H1612   1.083       .  S
C1606      C1607   1.415       .  A
C1607      C1608   1.412       .  A
C1607      C1614   1.519       .  S
C1608      C1609   1.410       .  A
C1608      H1613   1.083       .  S
C1609      C1610   1.429       .  A
C1610      C1611   1.521       .  S
C1611      F1615   1.385       .  S
C1611      F1616   1.382       .  S
C1611      F1617   1.383       .  S
C1614      F1618   1.382   1_545  S
C1614      F1619   1.384       .  S
C1614      F1620   1.384   1_545  S
C1621      C1622   1.405       .  A
C1621      C1626   1.403       .  A
C1621      H1628   1.083       .  S
C1622      C1623   1.418       .  A
C1623      C1624   1.405       .  A
C1623      C1630   1.518       .  S
C1624      C1625   1.400       .  A
C1624      H1629   1.083       .  S
C1625      C1626   1.412       .  A
C1626      C1627   1.518       .  S
C1627      F1631   1.385       .  S
C1627      F1632   1.383       .  S
C1627      F1633   1.383       .  S
C1630      F1634   1.380       .  S
C1630      F1635   1.383       .  S
C1630      F1636   1.385       .  S
C1637      C1638   1.402       .  A
C1637      C1642   1.406       .  A
C1637      H1644   1.083       .  S
C1638      C1639   1.420       .  A
C1639      C1640   1.410       .  A
C1639      C1646   1.520       .  S
C1640      C1641   1.402       .  A
C1640      H1645   1.083       .  S
C1641      C1642   1.414       .  A
C1642      C1643   1.516       .  S
C1643      F1647   1.384       .  S
C1643      F1648   1.381       .  S
C1643      F1649   1.382       .  S
C1646      F1650   1.383       .  S
C1646      F1651   1.381       .  S
C1646      F1652   1.385       .  S
C1653      C1654   1.411       .  A
C1653      C1658   1.406       .  A
C1653      H1660   1.083       .  S
C1654      C1655   1.420       .  A
C1655      C1656   1.413       .  A
C1655      C1662   1.515   1_655  S
C1656      C1657   1.404       .  A
C1656      H1661   1.083   1_655  S
C1657      C1658   1.415       .  A
C1658      C1659   1.521       .  S
C1659      F1663   1.385       .  S
C1659      F1664   1.381       .  S
C1659      F1665   1.384       .  S
C1662      F1666   1.383   1_455  S
C1662      F1667   1.383       .  S
C1662      F1668   1.385       .  S
C1669      C1670   1.403       .  A
C1669      C1674   1.403       .  A
C1669      H1676   1.084       .  S
C1670      C1671   1.417       .  A
C1671      C1672   1.405       .  A
C1671      C1678   1.517       .  S
C1672      C1673   1.402       .  A
C1672      H1677   1.083       .  S
C1673      C1674   1.416       .  A
C1674      C1675   1.520       .  S
C1675      F1679   1.385       .  S
C1675      F1680   1.384   1_565  S
C1675      F1681   1.380       .  S
C1678      F1682   1.383       .  S
C1678      F1683   1.382       .  S
C1678      F1684   1.385       .  S
C1685      C1686   1.402       .  A
C1685      C1690   1.402       .  A
C1685      H1692   1.084       .  S
C1686      C1687   1.415       .  A
C1687      C1688   1.403       .  A
C1687      C1694   1.518       .  S
C1688      C1689   1.400       .  A
C1688      H1693   1.084       .  S
C1689      C1690   1.411       .  A
C1690      C1691   1.517       .  S
C1691      F1695   1.385       .  S
C1691      F1696   1.383       .  S
C1691      F1697   1.383       .  S
C1694      F1698   1.383       .  S
C1694      F1699   1.382       .  S
C1694      F1700   1.385       .  S
C1701      C1702   1.408       .  A
C1701      C1706   1.403       .  A
C1701      H1708   1.083       .  S
C1702      C1703   1.427       .  A
C1703      C1704   1.405       .  A
C1703      C1710   1.520       .  S
C1704      C1705   1.397       .  A
C1704      H1709   1.083       .  S
C1705      C1706   1.413       .  A
C1706      C1707   1.521       .  S
C1707      F1711   1.384       .  S
C1707      F1712   1.383       .  S
C1707      F1713   1.381       .  S
C1710      F1714   1.382   1_545  S
C1710      F1715   1.383       .  S
C1710      F1716   1.385       .  S
C1717      C1718   1.402       .  A
C1717      C1722   1.408       .  A
C1717      H1724   1.083       .  S
C1718      C1719   1.417       .  A
C1719      C1720   1.407       .  A
C1719      C1726   1.519       .  S
C1720      C1721   1.403       .  A
C1720      H1725   1.084       .  S
C1721      C1722   1.418       .  A
C1722      C1723   1.519       .  S
C1723      F1727   1.384       .  S
C1723      F1728   1.382       .  S
C1723      F1729   1.383       .  S
C1726      F1730   1.384       .  S
C1726      F1731   1.382       .  S
C1726      F1732   1.384       .  S
C1733      C1734   1.403       .  A
C1733      C1738   1.406       .  A
C1733      H1740   1.083       .  S
C1734      C1735   1.420       .  A
C1735      C1736   1.403       .  A
C1735      C1742   1.519       .  S
C1736      C1737   1.401       .  A
C1736      H1741   1.085       .  S
C1737      C1738   1.415       .  A
C1738      C1739   1.517       .  S
C1739      F1743   1.385       .  S
C1739      F1744   1.383       .  S
C1739      F1745   1.382       .  S
C1742      F1746   1.383       .  S
C1742      F1747   1.383       .  S
C1742      F1748   1.384       .  S
C1749      C1750   1.399   1_455  A
C1749      C1754   1.405       .  A
C1749      H1756   1.084       .  S
C1750      C1751   1.410       .  A
C1751      C1752   1.403       .  A
C1751      C1758   1.519       .  S
C1752      C1753   1.411       .  A
C1752      H1757   1.081       .  S
C1753      C1754   1.429   1_655  A
C1754      C1755   1.523       .  S
C1755      F1759   1.385       .  S
C1755      F1760   1.384       .  S
C1755      F1761   1.383   1_455  S
C1758      F1762   1.383   1_655  S
C1758      F1763   1.381       .  S
C1758      F1764   1.385       .  S
C1765      C1766   1.403       .  A
C1765      C1770   1.405       .  A
C1765      H1772   1.083       .  S
C1766      C1767   1.417       .  A
C1767      C1768   1.407       .  A
C1767      C1774   1.519       .  S
C1768      C1769   1.401       .  A
C1768      H1773   1.083       .  S
C1769      C1770   1.414       .  A
C1770      C1771   1.518       .  S
C1771      F1775   1.385       .  S
C1771      F1776   1.383       .  S
C1771      F1777   1.382       .  S
C1774      F1778   1.382       .  S
C1774      F1779   1.383       .  S
C1774      F1780   1.385       .  S
C1781      C1782   1.406       .  A
C1781      C1786   1.408       .  A
C1781      H1788   1.083       .  S
C1782      C1783   1.420       .  A
C1783      C1784   1.406       .  A
C1783      C1790   1.517       .  S
C1784      C1785   1.402       .  A
C1784      H1789   1.084       .  S
C1785      C1786   1.417       .  A
C1786      C1787   1.517       .  S
C1787      F1791   1.385       .  S
C1787      F1792   1.382       .  S
C1787      F1793   1.382       .  S
C1790      F1794   1.383       .  S
C1790      F1795   1.384       .  S
C1790      F1796   1.381       .  S
C1797      C1798   1.405       .  A
C1797      C1802   1.418       .  A
C1797      H1804   1.083       .  S
C1798      C1799   1.414       .  A
C1799      C1800   1.406       .  A
C1799      C1806   1.521       .  S
C1800      C1801   1.412       .  A
C1800      H1805   1.083       .  S
C1801      C1802   1.424       .  A
C1802      C1803   1.517   1_655  S
C1803      F1807   1.384       .  S
C1803      F1808   1.383       .  S
C1803      F1809   1.383   1_455  S
C1806      F1810   1.382       .  S
C1806      F1811   1.382       .  S
C1806      F1812   1.383       .  S
C1813      C1814   1.404       .  A
C1813      C1818   1.410       .  A
C1813      H1820   1.083       .  S
C1814      C1815   1.417       .  A
C1815      C1816   1.408       .  A
C1815      C1822   1.517       .  S
C1816      C1817   1.401       .  A
C1816      H1821   1.084       .  S
C1817      C1818   1.415       .  A
C1818      C1819   1.518       .  S
C1819      F1823   1.384       .  S
C1819      F1824   1.382       .  S
C1819      F1825   1.383       .  S
C1822      F1826   1.382       .  S
C1822      F1827   1.383       .  S
C1822      F1828   1.385       .  S
C1829      C1830   1.404       .  A
C1829      C1834   1.406       .  A
C1829      H1836   1.083       .  S
C1830      C1831   1.417       .  A
C1831      C1832   1.406       .  A
C1831      C1838   1.516       .  S
C1832      C1833   1.401       .  A
C1832      H1837   1.084       .  S
C1833      C1834   1.413       .  A
C1834      C1835   1.515       .  S
C1835      F1839   1.385       .  S
C1835      F1840   1.384       .  S
C1835      F1841   1.382       .  S
C1838      F1842   1.382       .  S
C1838      F1843   1.382       .  S
C1838      F1844   1.386       .  S
C1845      C1846   1.405       .  A
C1845      C1850   1.410       .  A
C1845      H1852   1.083   1_545  S
C1846      C1847   1.418       .  A
C1847      C1848   1.402       .  A
C1847      C1854   1.519       .  S
C1848      C1849   1.405       .  A
C1848      H1853   1.085       .  S
C1849      C1850   1.422       .  A
C1850      C1851   1.520   1_545  S
C1851      F1855   1.385       .  S
C1851      F1856   1.382   1_565  S
C1851      F1857   1.384       .  S
C1854      F1858   1.384       .  S
C1854      F1859   1.383       .  S
C1854      F1860   1.381       .  S
C1861      C1862   1.401       .  A
C1861      C1866   1.404       .  A
C1861      H1868   1.084       .  S
C1862      C1863   1.413       .  A
C1863      C1864   1.403       .  A
C1863      C1870   1.517       .  S
C1864      C1865   1.401       .  A
C1864      H1869   1.084       .  S
C1865      C1866   1.413       .  A
C1866      C1867   1.518       .  S
C1867      F1871   1.384       .  S
C1867      F1872   1.382       .  S
C1867      F1873   1.383       .  S
C1870      F1874   1.383       .  S
C1870      F1875   1.382       .  S
C1870      F1876   1.384       .  S
C1877      C1878   1.404       .  A
C1877      C1882   1.406       .  A
C1877      H1884   1.083       .  S
C1878      C1879   1.419       .  A
C1879      C1880   1.405       .  A
C1879      C1886   1.521       .  S
C1880      C1881   1.399       .  A
C1880      H1885   1.084       .  S
C1881      C1882   1.412       .  A
C1882      C1883   1.516       .  S
C1883      F1887   1.384       .  S
C1883      F1888   1.383       .  S
C1883      F1889   1.383       .  S
C1886      F1890   1.383       .  S
C1886      F1891   1.381       .  S
C1886      F1892   1.385       .  S
C1893      C1894   1.401   1_554  A
C1893      C1898   1.406       .  A
C1893      H1900   1.084       .  S
C1894      C1895   1.414       .  A
C1895      C1896   1.406       .  A
C1895      C1902   1.520       .  S
C1896      C1897   1.409   1_556  A
C1896      H1901   1.083       .  S
C1897      C1898   1.425       .  A
C1898      C1899   1.521       .  S
C1899      F1903   1.385       .  S
C1899      F1904   1.384       .  S
C1899      F1905   1.381   1_565  S
C1902      F1906   1.384       .  S
C1902      F1907   1.384       .  S
C1902      F1908   1.381       .  S
C1909      C1910   1.400       .  A
C1909      C1914   1.406       .  A
C1909      H1916   1.083       .  S
C1910      C1911   1.413       .  A
C1911      C1912   1.409       .  A
C1911      C1918   1.518       .  S
C1912      C1913   1.405       .  A
C1912      H1917   1.083       .  S
C1913      C1914   1.416       .  A
C1914      C1915   1.516       .  S
C1915      F1919   1.384       .  S
C1915      F1920   1.382       .  S
C1915      F1921   1.383       .  S
C1918      F1922   1.383       .  S
C1918      F1923   1.384       .  S
C1918      F1924   1.384       .  S
C1925      C1926   1.405       .  A
C1925      C1930   1.414       .  A
C1925      H1932   1.083       .  S
C1926      C1927   1.412       .  A
C1927      C1928   1.407       .  A
C1927      C1934   1.518       .  S
C1928      C1929   1.406       .  A
C1928      H1933   1.084       .  S
C1929      C1930   1.417       .  A
C1930      C1931   1.516       .  S
C1931      F1935   1.385       .  S
C1931      F1936   1.381       .  S
C1931      F1937   1.383       .  S
C1934      F1938   1.382       .  S
C1934      F1939   1.384       .  S
C1934      F1940   1.384       .  S
C1941      C1942   1.404   1_556  A
C1941      C1946   1.412       .  A
C1941      H1948   1.083       .  S
C1942      C1943   1.422       .  A
C1943      C1944   1.413       .  A
C1943      C1950   1.522       .  S
C1944      C1945   1.409       .  A
C1944      H1949   1.083       .  S
C1945      C1946   1.426   1_554  A
C1946      C1947   1.522       .  S
C1947      F1951   1.381       .  S
C1947      F1952   1.384       .  S
C1947      F1953   1.385       .  S
C1950      F1954   1.381       .  S
C1950      F1955   1.383       .  S
C1950      F1956   1.385       .  S
C1957      C1958   1.403       .  A
C1957      C1962   1.406       .  A
C1957      H1964   1.084       .  S
C1958      C1959   1.413       .  A
C1959      C1960   1.404       .  A
C1959      C1966   1.519       .  S
C1960      C1961   1.406       .  A
C1960      H1965   1.083       .  S
C1961      C1962   1.417       .  A
C1962      C1963   1.520       .  S
C1963      F1967   1.385       .  S
C1963      F1968   1.383       .  S
C1963      F1969   1.381       .  S
C1966      F1970   1.382       .  S
C1966      F1971   1.383       .  S
C1966      F1972   1.385       .  S
C1973      C1974   1.402       .  A
C1973      C1978   1.406       .  A
C1973      H1980   1.084       .  S
C1974      C1975   1.411       .  A
C1975      C1976   1.407       .  A
C1975      C1982   1.515       .  S
C1976      C1977   1.404       .  A
C1976      H1981   1.083       .  S
C1977      C1978   1.416       .  A
C1978      C1979   1.520       .  S
C1979      F1983   1.385       .  S
C1979      F1984   1.383       .  S
C1979      F1985   1.382       .  S
C1982      F1986   1.383       .  S
C1982      F1987   1.383       .  S
C1982      F1988   1.384       .  S
C1989      C1990   1.397       .  A
C1989      C1994   1.408       .  A
C1989      H1996   1.083       .  S
C1990      C1991   1.414   1_556  A
C1991      C1992   1.407       .  A
C1991      C1998   1.520       .  S
C1992      C1993   1.409   1_554  A
C1992      H1997   1.082       .  S
C1993      C1994   1.432       .  A
C1994      C1995   1.521       .  S
C1995      F1999   1.385       .  S
C1995      F2000   1.383       .  S
C1995      F2001   1.383       .  S
C1998      F2002   1.381       .  S
C1998      F2003   1.384   1_554  S
C1998      F2004   1.384       .  S
