geometry optimzed in LAMMPS
_audit_creation_date              2020-12-01 
_audit_creation_method            'lammps2cif' 
_symmetry_space_group_name_H-M    'P1' 
_symmetry_Int_Tables_number       1 
_symmetry_cell_setting            triclinic 
loop_ 
_symmetry_equiv_pos_as_xyz 
  x,y,z 
_cell_length_a                    61.04131932 
_cell_length_b                    61.24325067179178 
_cell_length_c                    41.785247684013044 
_cell_angle_alpha                 90.07018046528795 
_cell_angle_beta                  89.69961661586018 
_cell_angle_gamma                 89.83432228609487 
loop_ 
_atom_site_label 
_atom_site_type_symbol 
_atom_site_fract_x 
_atom_site_fract_y 
_atom_site_fract_z 
_atom_site_charge 
O1          O  0.52926354  0.33539128  0.99877150    -0.56800
C2          C  0.48241018  0.34419735  0.94012626     0.75900
O3          O  0.49495160  0.35563769  0.05191724    -0.57900
C4          C  0.54371994  0.34680598  0.01245886     0.75800
C5          C  0.50855099  0.41152428  0.98458492     0.78200
Cd6        Cd  0.50179646  0.36515233  0.99532916     1.37500
O7          O  0.50106063  0.33859008  0.95038001    -0.56800
O8          O  0.51727725  0.39730852  0.96653994    -0.55600
C9          C  0.47462586  0.35240731  0.04948284     0.78200
O10         O  0.49622702  0.40443420  0.00663507    -0.58000
O11         O  0.47338714  0.36029156  0.95392907    -0.56400
O12         O  0.53923523  0.36676294  0.01677660    -0.56400
O13         O  0.46633381  0.35619761  0.02242426    -0.55600
O14         O  0.55902560  0.63674543  0.00772347    -0.56800
C15         C  0.51080671  0.63255158  0.94954956     0.75900
O16         O  0.55751639  0.61234632  0.90946081    -0.57900
C17         C  0.57111929  0.62475272  0.02480976     0.75800
C18         C  0.53914937  0.56262136  0.97261770     0.78200
Cd19       Cd  0.54975800  0.60838233  0.96709092     1.37500
O20         O  0.52891076  0.64180638  0.95483472    -0.56800
O21         O  0.53079616  0.57661268  0.99150051    -0.55600
C22         C  0.57797065  0.61441370  0.91221490     0.78200
O23         O  0.55256301  0.56970771  0.95195635    -0.58000
O24         O  0.50997053  0.61226775  0.95509526    -0.56400
O25         O  0.57280426  0.60503587  0.01614123    -0.56400
O26         O  0.58562226  0.61291327  0.94017159    -0.55600
O27         O  0.00357908  0.33219849  0.48826613    -0.56800
C28         C  0.04981523  0.34976176  0.42822201     0.75900
O29         O  0.97113273  0.35929303  0.41843388    -0.57900
C30         C  0.98731753  0.34015282  0.50320333     0.75800
C31         C  0.01204533  0.40765338  0.46045815     0.78200
Cd32       Cd  0.00630713  0.36213514  0.44813404     1.37500
O33         O  0.03867302  0.33735698  0.44628501    -0.56800
O34         O  0.02128552  0.39338513  0.47765983    -0.55600
C35         C  0.97976257  0.35199099  0.39305422     0.78200
O36         O  0.99945047  0.40085706  0.43873401    -0.58000
O37         O  0.04135486  0.36797580  0.42118313    -0.56400
O38         O  0.98023226  0.35832425  0.49330799    -0.56400
O39         O  0.00023304  0.34927136  0.39336690    -0.55600
O40         O  0.01654542  0.62401555  0.49609142    -0.56800
C41         C  0.06810542  0.62564643  0.44374331     0.75900
O42         O  0.08483270  0.60664103  0.53004332    -0.57900
C43         C  0.00752926  0.61359505  0.51879097     0.75800
C44         C  0.04552265  0.55651796  0.48475320     0.78200
Cd45       Cd  0.05060338  0.60220574  0.49781213     1.37500
O46         O  0.04854154  0.62849272  0.45297147    -0.56800
O47         O  0.03623697  0.57082479  0.46778734    -0.55600
C48         C  0.07514955  0.61648294  0.55271001     0.78200
O49         O  0.05818277  0.56329423  0.50639901    -0.58000
O50         O  0.07942412  0.61204777  0.45932795    -0.56400
O51         O  0.01813761  0.59778099  0.53055141    -0.56400
O52         O  0.05484694  0.61952166  0.54964695    -0.55600
O53         O  0.64518092  0.27925884  0.25377547    -0.56800
C54         C  0.63674928  0.20780290  0.19607470     0.75900
O55         O  0.64405861  0.28555861  0.17453357    -0.57900
C56         C  0.62652985  0.27347222  0.26390463     0.75800
C57         C  0.69361467  0.24838806  0.21949111     0.78200
Cd58       Cd  0.64742204  0.25256642  0.20937436     1.37500
O59         O  0.62468213  0.21906251  0.21460106    -0.56800
O60         O  0.67995898  0.24112773  0.23970123    -0.55600
C61         C  0.63410800  0.27578038  0.15230374     0.78200
O62         O  0.68592859  0.25828020  0.19546122    -0.58000
O63         O  0.65405097  0.21674908  0.18592552    -0.56400
O64         O  0.61748379  0.25790493  0.24912771    -0.56400
O65         O  0.63027791  0.25578714  0.15664665    -0.55600
O66         O  0.89515861  0.18881770  0.20906310    -0.56800
C67         C  0.90586552  0.26400928  0.25738599     0.75900
O68         O  0.85384667  0.21540823  0.26647909    -0.57900
C69         C  0.90880345  0.19778553  0.19044423     0.75800
C70         C  0.90918896  0.19915707  0.30444012     0.78200
Cd71       Cd  0.89199727  0.21990634  0.24739408     1.37500
O72         O  0.91841312  0.25011129  0.24417930    -0.56800
O73         O  0.89798424  0.18861874  0.28432299    -0.55600
C74         C  0.84523841  0.22417303  0.24217356     0.78200
O75         O  0.91216488  0.21910702  0.29855239    -0.58000
O76         O  0.88647640  0.25800180  0.26347675    -0.56400
O77         O  0.91470475  0.21689730  0.19789690    -0.56400
O78         O  0.85813181  0.23047939  0.22030965    -0.55600
O79         O  0.52241281  0.12116583  0.99966596    -0.56800
C80         C  0.57222050  0.12079626  0.94613432     0.75900
O81         O  0.55677770  0.10904134  0.05420858    -0.57900
C82         C  0.51058485  0.10933613  0.01756819     0.75800
C83         C  0.55262477  0.04995454  0.98517233     0.78200
Cd84       Cd  0.55385952  0.09608142  0.99872074     1.37500
O85         O  0.58399335  0.10969413  0.96489631    -0.56800
O86         O  0.54422035  0.06378284  0.96643790    -0.55600
C87         C  0.57734774  0.11084196  0.05429534     0.78200
O88         O  0.56261746  0.05742231  0.00919811    -0.58000
O89         O  0.55171738  0.11995874  0.95074948    -0.56400
O90         O  0.51818817  0.09081743  0.02508442    -0.56400
O91         O  0.58733291  0.10512387  0.02905322    -0.65200
O92         O  0.52365872  0.82007512  0.95279255    -0.56800
C93         C  0.48408954  0.84159663  0.02256869     0.75900
O94         O  0.50299446  0.89415442  0.94775506    -0.57900
C95         C  0.54223356  0.82816370  0.94650491     0.75800
C96         C  0.47888513  0.85084328  0.90890181     0.78200
Cd97       Cd  0.50569963  0.85564701  0.96445429     1.37500
O98         O  0.50411541  0.84680555  0.02241762    -0.56800
O99         O  0.47033072  0.85377964  0.93625956    -0.55600
C100        C  0.51538067  0.90151861  0.96929301     0.78200
O101        O  0.49957277  0.85074499  0.90733620    -0.58000
O102        O  0.47426841  0.84256797  0.99608270    -0.56400
O103        O  0.54431306  0.84844782  0.95100883    -0.56400
O104        O  0.52276766  0.88787004  0.98915539    -0.55600
O105        O  0.91990375  0.71675136  0.74699406    -0.56800
C106        C  0.91512675  0.75489855  0.68065733     0.75900
O107        O  0.90802218  0.67885197  0.67789259    -0.57900
C108        C  0.91317777  0.69952065  0.76041977     0.75800
C109        C  0.84929833  0.72014363  0.70764960     0.78200
Cd110      Cd  0.89570161  0.71436078  0.70009162     1.37500
O111        O  0.92585325  0.74063407  0.69592959    -0.56800
O112        O  0.86283015  0.73176756  0.72280816    -0.55600
C113        C  0.90968611  0.68525994  0.64927267     0.78200
O114        O  0.85715071  0.70563507  0.68933354    -0.58000
O115        O  0.89514492  0.75085889  0.67545747    -0.56400
O116        O  0.89763612  0.68958767  0.74685646    -0.56400
O117        O  0.90424282  0.70479371  0.64385892    -0.55600
O118        O  0.63005083  0.74368040  0.69060217    -0.56800
C119        C  0.64404748  0.69769954  0.76119395     0.75900
O120        O  0.68939343  0.75225303  0.74856542    -0.57900
C121        C  0.63146111  0.76422806  0.68805488     0.75800
C122        C  0.63192725  0.76045675  0.79662986     0.78200
Cd123      Cd  0.65136417  0.74153817  0.74066433     1.37500
O124        O  0.63270827  0.70580821  0.73876056    -0.56800
O125        O  0.65057819  0.76693584  0.78724418    -0.55600
C126        C  0.69700996  0.73955123  0.72730272     0.78200
O127        O  0.62254565  0.74622118  0.77969997    -0.58000
O128        O  0.65940557  0.70928071  0.77211247    -0.56400
O129        O  0.64230518  0.77406375  0.70930642    -0.56400
O130        O  0.68340622  0.72854457  0.71127413    -0.55600
O131        O  0.07461482  0.10967567  0.49281686    -0.56800
C132        C  0.00563585  0.12777172  0.43718504     0.75900
O133        O  0.05204583  0.11992135  0.39432073    -0.57900
C134        C  0.06510872  0.12471247  0.50840265     0.75800
C135        C  0.04043142  0.06121024  0.45598690     0.78200
Cd136      Cd  0.04706520  0.10780531  0.44998317     1.37500
O137        O  0.02156877  0.13888065  0.44744586    -0.56800
O138        O  0.03222556  0.07456486  0.47582695    -0.55600
C139        C  0.07248227  0.12278262  0.39551039     0.78200
O140        O  0.05201109  0.06925253  0.43376372    -0.58000
O141        O  0.00850176  0.10736180  0.43471376    -0.56400
O142        O  0.04712519  0.13157637  0.49743125    -0.56400
O143        O  0.08173469  0.11756497  0.42142047    -0.55600
O144        O  0.01495823  0.83845569  0.44515803    -0.56800
C145        C  0.05665506  0.84630080  0.51278640     0.75900
O146        O  0.00802337  0.90188168  0.50363358    -0.57900
C147        C  0.99477276  0.84056694  0.43915174     0.75800
C148        C  0.98960736  0.85022056  0.54857062     0.78200
Cd149      Cd  0.01482658  0.86295378  0.49280852     1.37500
O150        O  0.04403039  0.83492762  0.49555728    -0.56800
O151        O  0.98069411  0.85994324  0.52535116    -0.55600
C152        C  0.01908146  0.90938944  0.48052684     0.78200
O153        O  0.00999847  0.84718248  0.54654598    -0.58000
O154        O  0.05084312  0.86582213  0.51820766    -0.56400
O155        O  0.98405410  0.85326151  0.45725306    -0.56400
O156        O  0.02822143  0.89548978  0.46238001    -0.55600
O157        O  0.13080880  0.75197909  0.76607875    -0.56800
C158        C  0.13868175  0.70703976  0.70177998     0.75900
O159        O  0.13760596  0.75373080  0.66655765    -0.57900
C160        C  0.13895189  0.76963827  0.77622286     0.75800
C161        C  0.20107893  0.74148584  0.72632731     0.78200
Cd162      Cd  0.15506161  0.74907522  0.71869515     1.37500
O163        O  0.12663442  0.72062935  0.71664677    -0.56800
O164        O  0.18740630  0.73323255  0.74565938    -0.55600
C165        C  0.14066378  0.77395371  0.66362813     0.78200
O166        O  0.19345743  0.75319023  0.70405481    -0.58000
O167        O  0.15852323  0.71221695  0.69750206    -0.56400
O168        O  0.15444581  0.77766390  0.75997428    -0.56400
O169        O  0.15088369  0.78322450  0.68606874    -0.55600
O170        O  0.42291564  0.75623971  0.74212613    -0.56800
C171        C  0.41963034  0.70028804  0.69195484     0.75900
O172        O  0.42836775  0.71960026  0.78966514    -0.57900
C173        C  0.41166763  0.76677668  0.76256651     0.75800
C174        C  0.35422085  0.72441025  0.73959141     0.78200
Cd175      Cd  0.40105750  0.72250137  0.74711096     1.37500
O176        O  0.42022358  0.72086512  0.69433561    -0.56800
O177        O  0.36705816  0.73510645  0.72170543    -0.55600
C178        C  0.42055294  0.70291727  0.80321162     0.78200
O179        O  0.36296309  0.71233776  0.76049601    -0.58000
O180        O  0.41026173  0.69018390  0.71448677    -0.56400
O181        O  0.39495763  0.75734521  0.77396659    -0.56400
O182        O  0.40357219  0.69476457  0.79079091    -0.55600
O183        O  0.13101423  0.22919225  0.23621776    -0.56800
C184        C  0.14220137  0.27763485  0.17540316     0.75900
O185        O  0.14891479  0.26391384  0.28905044    -0.57900
C186        C  0.14277589  0.21619565  0.25237457     0.75800
C187        C  0.20634820  0.25193564  0.22433945     0.78200
Cd188      Cd  0.15977328  0.25811133  0.23305872     1.37500
O189        O  0.13344836  0.26084310  0.18760826    -0.56800
O190        O  0.19253995  0.24302162  0.20602669    -0.55600
C191        C  0.14605429  0.28425061  0.28746565     0.78200
O192        O  0.19876379  0.26438247  0.24591595    -0.58000
O193        O  0.15904414  0.28488518  0.18924381    -0.56400
O194        O  0.16250339  0.22168139  0.25654158    -0.56400
O195        O  0.15027699  0.29308593  0.26085193    -0.55600
O196        O  0.43344959  0.20199675  0.24152347    -0.56800
C197        C  0.41321055  0.25142970  0.18602243     0.75900
O198        O  0.40492933  0.17229367  0.17482261    -0.57900
C199        C  0.42441949  0.18802145  0.25952565     0.75800
C200        C  0.35588492  0.21338107  0.21763546     0.78200
Cd201      Cd  0.40182947  0.20747347  0.20527225     1.37500
O202        O  0.42485463  0.24109401  0.20602367    -0.56800
O203        O  0.37013520  0.22199783  0.23553940    -0.55600
C204        C  0.41411420  0.18076317  0.15069603     0.78200
O205        O  0.36286083  0.20115364  0.19535415    -0.58000
O206        O  0.39606200  0.24198823  0.17652839    -0.56400
O207        O  0.40465054  0.18359031  0.25349012    -0.56400
O208        O  0.41706951  0.20110852  0.15171102    -0.55600
O209        O  0.93241459  0.75297830  0.25363887    -0.56800
C210        C  0.91755358  0.70909208  0.18594032     0.75900
O211        O  0.86651678  0.75671230  0.19897828    -0.57900
C212        C  0.92601337  0.77125285  0.26434434     0.75800
C213        C  0.92184820  0.77624340  0.15477554     0.78200
Cd214      Cd  0.90588852  0.75161250  0.20874614     1.37500
O215        O  0.92781344  0.71788034  0.20887399    -0.56800
O216        O  0.90564216  0.78326510  0.17081918    -0.55600
C217        C  0.86021067  0.74476435  0.22191331     0.78200
O218        O  0.93048379  0.75868264  0.16414554    -0.58000
O219        O  0.90105333  0.71923788  0.17532384    -0.56400
O220        O  0.91034055  0.78026417  0.24969580    -0.56400
O221        O  0.87495414  0.73657523  0.23941224    -0.55600
O222        O  0.64055011  0.70339521  0.21379249    -0.56800
C223        C  0.64922952  0.74370118  0.28239880     0.75900
O224        O  0.65428570  0.66727134  0.28521817    -0.57900
C225        C  0.64547228  0.68470358  0.20281737     0.75800
C226        C  0.71118497  0.70890713  0.24633046     0.78200
Cd227      Cd  0.66564041  0.70214127  0.26013280     1.37500
O228        O  0.63738128  0.73113804  0.26571646    -0.56800
O229        O  0.69633725  0.71874551  0.23105499    -0.55600
C230        C  0.65290824  0.67468872  0.31337024     0.78200
O231        O  0.70504364  0.69508305  0.26693983    -0.58000
O232        O  0.66862831  0.73744045  0.28759039    -0.56400
O233        O  0.66001183  0.67417221  0.21782220    -0.56400
O234        O  0.65859709  0.69427481  0.31727138    -0.55600
O235        O  0.01152318  0.13814302  0.93797470    -0.56800
C236        C  0.97481236  0.12464568  0.01491382     0.75900
O237        O  0.98200294  0.10729989  0.89983019    -0.57900
C238        C  0.02922560  0.12842971  0.93096843     0.75800
C239        C  0.00344835  0.05989063  0.96471051     0.78200
Cd240      Cd  0.99194859  0.10526285  0.95634887     1.37500
O241        O  0.96680907  0.10729613  0.00348120    -0.56800
O242        O  0.01242178  0.07476303  0.98106763    -0.55600
C243        C  0.96211296  0.11219995  0.90400425     0.78200
O244        O  0.98862155  0.06583662  0.94554983    -0.58000
O245        O  0.99134641  0.13231470  0.00048141    -0.56400
O246        O  0.03035613  0.10836966  0.93794496    -0.56400
O247        O  0.95527258  0.11254036  0.93262831    -0.55600
O248        O  0.05802431  0.83835499  0.96278799    -0.56800
C249        C  0.01338350  0.84772196  0.01554465     0.75900
O250        O  0.08852862  0.86180388  0.03358561    -0.57900
C251        C  0.07599786  0.84443786  0.95072611     0.75800
C252        C  0.04762625  0.91306672  0.98643517     0.78200
Cd253      Cd  0.05481654  0.86790829  0.00202380     1.37500
O254        O  0.03007922  0.83690657  0.00694092    -0.56800
O255        O  0.03916512  0.89800473  0.96988279    -0.55600
C256        C  0.07873761  0.86001013  0.06014904     0.78200
O257        O  0.06008066  0.90724048  0.00895324    -0.58000
O258        O  0.01537225  0.86827515  0.01661039    -0.56400
O259        O  0.08400075  0.86201292  0.96139258    -0.56400
O260        O  0.05828538  0.86307395  0.06007937    -0.55600
O261        O  0.04312310  0.34043308  0.92715656    -0.56800
C262        C  0.08149997  0.35187339  0.99841397     0.75900
O263        O  0.07385431  0.36826912  0.88288279    -0.57900
C264        C  0.02580399  0.35065962  0.92004355     0.75800
C265        C  0.05824697  0.41802541  0.95160235     0.78200
Cd266      Cd  0.06528739  0.37211277  0.94048376     1.37500
O267        O  0.06304390  0.34708082  0.98682600    -0.56800
O268        O  0.04767933  0.40365838  0.96686505    -0.55600
C269        C  0.09350663  0.36227053  0.88643436     0.78200
O270        O  0.07248898  0.41125306  0.93185470    -0.58000
O271        O  0.09221613  0.36655913  0.98402742    -0.56400
O272        O  0.02612337  0.37119433  0.92355048    -0.56400
O273        O  0.10064810  0.36205082  0.91477666    -0.55600
O274        O  0.03663257  0.64519883  0.98820477    -0.56800
C275        C  0.99229956  0.63059198  0.92503691     0.75900
O276        O  0.00672631  0.57367946  0.99079393    -0.57900
C277        C  0.05297949  0.63492418  0.99915560     0.75800
C278        C  0.98625512  0.62210790  0.03689257     0.78200
Cd279      Cd  0.01315619  0.61278233  0.98140606     1.37500
O280        O  0.00956543  0.63895539  0.93623939    -0.56800
O281        O  0.97820251  0.62114980  0.00916268    -0.55600
C282        C  0.02110677  0.56690964  0.97126652     0.78200
O283        O  0.00643395  0.61796184  0.03921648    -0.58000
O284        O  0.98546508  0.61348791  0.93863358    -0.56400
O285        O  0.05162916  0.61431194  0.99958747    -0.56400
O286        O  0.03161523  0.58128694  0.95584520    -0.55600
O287        O  0.12941323  0.75274425  0.21678131    -0.56800
C288        C  0.13196166  0.69753460  0.26686209     0.75900
O289        O  0.12978443  0.71615324  0.16532748    -0.57900
C290        C  0.14141203  0.76380141  0.19803095     0.75800
C291        C  0.19761715  0.72713458  0.22702193     0.78200
Cd292      Cd  0.15229016  0.71967869  0.21305642     1.37500
O293        O  0.12269859  0.71342992  0.25319453    -0.56800
O294        O  0.18249466  0.73706618  0.24197139    -0.55600
C295        C  0.13879692  0.69941807  0.15362636     0.78200
O296        O  0.19182297  0.71286864  0.20679226    -0.58000
O297        O  0.15043873  0.69188384  0.25583725    -0.56400
O298        O  0.15895019  0.75493481  0.18827021    -0.56400
O299        O  0.15431189  0.69116601  0.16960991    -0.55600
O300        O  0.42358466  0.78521771  0.23425081    -0.56800
C301        C  0.40685364  0.72570058  0.28086518     0.75900
O302        O  0.39627057  0.80393808  0.28789137    -0.57900
C303        C  0.41530259  0.78463939  0.20659892     0.75800
C304        C  0.34629249  0.76442110  0.24724377     0.78200
Cd305      Cd  0.39194599  0.76805368  0.26138850     1.37500
O306        O  0.41854572  0.73743568  0.26269512    -0.56800
O307        O  0.36072607  0.75297464  0.23332003    -0.55600
C308        C  0.40037222  0.79580845  0.31507078     0.78200
O309        O  0.35294352  0.77859477  0.26699586    -0.58000
O310        O  0.38829302  0.73316985  0.28861901    -0.56400
O311        O  0.39661993  0.77597353  0.20418503    -0.56400
O312        O  0.39915975  0.77530775  0.31753365    -0.55600
O313        O  0.52218466  0.12329612  0.43124792    -0.56800
C314        C  0.56444679  0.12194177  0.51081735     0.75900
O315        O  0.49468636  0.10932788  0.52783359    -0.57900
C316        C  0.50207958  0.11930170  0.42667693     0.75800
C317        C  0.53135997  0.06068602  0.48298419     0.78200
Cd318      Cd  0.52357273  0.10693857  0.48556158     1.37500
O319        O  0.55623152  0.13134220  0.48660342    -0.56800
O320        O  0.54130712  0.07374590  0.46449323    -0.55600
C321        C  0.49907370  0.12901592  0.53459408     0.78200
O322        O  0.51741099  0.06891675  0.50207923    -0.58000
O323        O  0.55482005  0.10502405  0.52083510    -0.56400
O324        O  0.49224840  0.10889793  0.44853413    -0.56400
O325        O  0.51378104  0.13814351  0.51810440    -0.55600
O326        O  0.51489887  0.84068828  0.46480188    -0.56800
C327        C  0.56377422  0.83935259  0.51850630     0.75900
O328        O  0.55723487  0.84810337  0.40702804    -0.57900
C329        C  0.50509574  0.85230300  0.44429433     0.75800
C330        C  0.54975318  0.90803936  0.47175327     0.78200
Cd331      Cd  0.54979403  0.86152454  0.46141536     1.37500
O332        O  0.55181791  0.83000391  0.49802783    -0.56800
O333        O  0.53836884  0.89523802  0.48872293    -0.55600
C334        C  0.57759354  0.84529014  0.41013320     0.78200
O335        O  0.56173030  0.89937531  0.45040387    -0.58000
O336        O  0.56874018  0.85903774  0.51309087    -0.56400
O337        O  0.51560935  0.86826240  0.43291010    -0.56400
O338        O  0.58564525  0.85062973  0.43680627    -0.55600
O339        O  0.14862705  0.18449082  0.69734586    -0.56800
C340        C  0.15009016  0.25801774  0.75521886     0.75900
O341        O  0.14700567  0.18305462  0.77776148    -0.57900
C342        C  0.13288716  0.19381422  0.68334391     0.75800
C343        C  0.20151918  0.21250076  0.72850455     0.78200
Cd344      Cd  0.15447418  0.21287613  0.73816815     1.37500
O345        O  0.13948963  0.25037935  0.73170266    -0.56800
O346        O  0.18870452  0.22395693  0.71169802    -0.55600
C347        C  0.13145144  0.19313084  0.79153791     0.78200
O348        O  0.19266160  0.20011130  0.74909035    -0.58000
O349        O  0.16312959  0.24513541  0.76923474    -0.56400
O350        O  0.12744404  0.21246815  0.69373847    -0.56400
O351        O  0.12734072  0.21208427  0.78148810    -0.55600
O352        O  0.43371212  0.23591647  0.69225554    -0.56800
C353        C  0.41498645  0.26751102  0.77160182     0.75900
O354        O  0.40352775  0.26390118  0.65530367    -0.57900
C355        C  0.42608386  0.21751305  0.68446690     0.75800
C356        C  0.35348663  0.24008999  0.71504241     0.78200
Cd357      Cd  0.39927008  0.25163974  0.71078014     1.37500
O358        O  0.42286430  0.25041603  0.75892535    -0.56800
O359        O  0.36755948  0.23036587  0.73205126    -0.55600
C360        C  0.40760580  0.28363119  0.66166596     0.78200
O361        O  0.36058300  0.25482307  0.69657027    -0.58000
O362        O  0.39928133  0.27654853  0.75709207    -0.56400
O363        O  0.40620051  0.21393302  0.69138868    -0.56400
O364        O  0.40653421  0.28915266  0.69080750    -0.55600
O365        O  0.53524302  0.62953579  0.46118155    -0.56800
C366        C  0.48494261  0.62706798  0.51658197     0.75900
O367        O  0.49520662  0.62066824  0.40559147    -0.57900
C368        C  0.54642303  0.61701882  0.44328330     0.75800
C369        C  0.50324834  0.55981862  0.46541857     0.78200
Cd370      Cd  0.50145799  0.60637435  0.45910113     1.37500
O371        O  0.49548189  0.63739400  0.49535023    -0.56800
O372        O  0.51208103  0.57262294  0.48529750    -0.55600
C373        C  0.47467274  0.62247968  0.40775560     0.78200
O374        O  0.49226345  0.56847005  0.44310804    -0.58000
O375        O  0.48253615  0.60678924  0.51204772    -0.56400
O376        O  0.53729782  0.59956258  0.43453732    -0.56400
O377        O  0.46590609  0.61574373  0.43336132    -0.55600
O378        O  0.56844534  0.35675941  0.45629675    -0.56800
C379        C  0.49656774  0.35615464  0.51999994     0.75900
O380        O  0.54529918  0.34106451  0.54538551    -0.57900
C381        C  0.55837667  0.34169801  0.44186876     0.75800
C382        C  0.53720008  0.41016702  0.48374852     0.78200
Cd383      Cd  0.54040172  0.36396870  0.49770251     1.37500
O384        O  0.50495988  0.34406540  0.49851660    -0.56800
O385        O  0.52914158  0.39605833  0.46510065    -0.55600
C386        C  0.56397867  0.34770666  0.55358485     0.78200
O387        O  0.54743897  0.40296136  0.50780600    -0.58000
O388        O  0.50755661  0.37259188  0.52857085    -0.56400
O389        O  0.53977202  0.33661869  0.45305942    -0.56400
O390        O  0.57269638  0.36185532  0.53552220    -0.55600
O391        O  0.92440426  0.25238787  0.68947716    -0.56800
C392        C  0.90727575  0.20985396  0.76193589     0.75900
O393        O  0.93309916  0.25935101  0.77574697    -0.57900
C394        C  0.91895784  0.27114331  0.67956886     0.75800
C395        C  0.85467195  0.25408378  0.73589827     0.78200
Cd396      Cd  0.90198256  0.25427163  0.73986455     1.37500
O397        O  0.91794365  0.21672182  0.73786288    -0.56800
O398        O  0.86697424  0.24327678  0.71718839    -0.55600
C399        C  0.92696594  0.27719416  0.78802290     0.78200
O400        O  0.86413097  0.26630618  0.75602739    -0.58000
O401        O  0.89381607  0.22305951  0.77455456    -0.56400
O402        O  0.90542057  0.28157580  0.69676158    -0.56400
O403        O  0.90902852  0.28498363  0.77806378    -0.55600
O404        O  0.62490578  0.24706462  0.71732990    -0.56800
C405        C  0.63768207  0.20227443  0.77975734     0.75900
O406        O  0.65069513  0.18462590  0.69283684    -0.57900
C407        C  0.63562637  0.26190202  0.70324804     0.75800
C408        C  0.70216106  0.22781954  0.73065859     0.78200
Cd409      Cd  0.65570154  0.22066027  0.72085734     1.37500
O410        O  0.65788105  0.20121187  0.77318230    -0.56800
O411        O  0.68787876  0.23871415  0.74596393    -0.55600
C412        C  0.64607171  0.19277139  0.66589505     0.78200
O413        O  0.69504217  0.21377747  0.71104176    -0.58000
O414        O  0.62582707  0.21212870  0.75968080    -0.56400
O415        O  0.65596642  0.25857009  0.69981124    -0.56400
O416        O  0.64670586  0.21330006  0.66413327    -0.55600
C417        C  0.79629017  0.25268958  0.74711125     0.21400
C418        C  0.77567267  0.25742402  0.76091360    -0.38500
C419        C  0.75786750  0.24532324  0.74891318     0.20400
C420        C  0.76057991  0.22958611  0.72539151     0.23000
C421        C  0.78105074  0.22487544  0.71178109    -0.39000
C422        C  0.79864441  0.23709832  0.72334088     0.21800
N423        N  0.81590595  0.26158018  0.75420036    -0.32300
C424        C  0.83065658  0.25147395  0.73463210    -0.09800
C425        C  0.82040620  0.23627732  0.71500899    -0.28600
N426        N  0.74125973  0.22095422  0.71698106    -0.45200
C427        C  0.72589174  0.23138605  0.73482751    -0.04500
C428        C  0.73560634  0.24659037  0.75534674    -0.21900
H429        H  0.77359697  0.26977072  0.77924121     0.19900
H430        H  0.78309317  0.21273349  0.69314693     0.18700
H431        H  0.82801950  0.22547800  0.69766936     0.15000
H432        H  0.72743192  0.25760154  0.77182585     0.14900
H433        H  0.81912490  0.27332633  0.77167223     0.33000
H434        H  0.73861591  0.20921343  0.69928209     0.35800
C435        C  0.59895795  0.29919664  0.66586186     0.21400
C436        C  0.57890637  0.30455179  0.65156180    -0.38500
C437        C  0.57991545  0.31961252  0.62634258     0.20400
C438        C  0.59937244  0.32897643  0.61626543     0.23000
C439        C  0.61947691  0.32370069  0.63071728    -0.39000
C440        C  0.61851679  0.30835295  0.65574092     0.21800
N441        N  0.60263297  0.28288997  0.68668647    -0.32300
C442        C  0.62469000  0.28121982  0.68943112    -0.09800
C443        C  0.63514916  0.29713301  0.67095245    -0.28600
N444        N  0.59616095  0.34110416  0.58974570    -0.45200
C445        C  0.57457334  0.33908647  0.58270024    -0.04500
C446        C  0.56393124  0.32599954  0.60518747    -0.21900
H447        H  0.56379282  0.29650116  0.65821721     0.19900
H448        H  0.63488447  0.33001043  0.62180059     0.18700
H449        H  0.65256198  0.29872260  0.66655582     0.15000
H450        H  0.54697232  0.32088016  0.60506014     0.14900
H451        H  0.59093699  0.27215424  0.69595949     0.33000
H452        H  0.60808714  0.34919006  0.57629521     0.35800
C453        C  0.51997389  0.50576193  0.48470873     0.21400
C454        C  0.53105412  0.48981494  0.50236056    -0.38500
C455        C  0.53142652  0.46888690  0.48893745     0.20400
C456        C  0.52149086  0.46410506  0.46007032     0.23000
C457        C  0.51046711  0.48017834  0.44219862    -0.39000
C458        C  0.51007222  0.50122251  0.45572442     0.21800
N459        N  0.51780509  0.52692395  0.49223947    -0.32300
C460        C  0.50656555  0.53612912  0.46789632    -0.09800
C461        C  0.50127105  0.52061509  0.44464339    -0.28600
N462        N  0.52316198  0.44262211  0.45361616    -0.45200
C463        C  0.53413007  0.43377132  0.47865464    -0.04500
C464        C  0.53974640  0.44970717  0.50094002    -0.21900
H465        H  0.53867602  0.49341551  0.52508791     0.19900
H466        H  0.50263179  0.47653246  0.41964874     0.18700
H467        H  0.49294851  0.52332747  0.42218266     0.15000
H468        H  0.54779059  0.44737384  0.52371290     0.14900
H469        H  0.52422771  0.53479401  0.51231037     0.33000
H470        H  0.51647759  0.43434840  0.43405384     0.35800
C471        C  0.43159109  0.32546286  0.61400734     0.21400
C472        C  0.44509900  0.34359123  0.60860320    -0.38500
C473        C  0.45411328  0.34525415  0.57774911     0.20400
C474        C  0.45017654  0.32990389  0.55410493     0.23000
C475        C  0.43649211  0.31190377  0.55943122    -0.39000
C476        C  0.42738605  0.31030466  0.59021270     0.21800
N477        N  0.42353602  0.31864215  0.64228507    -0.32300
C478        C  0.41436180  0.29891502  0.63644563    -0.09800
C479        C  0.41616713  0.29333360  0.60419178    -0.28600
N480        N  0.46347873  0.33311856  0.52879668    -0.45200
C481        C  0.47603756  0.35053847  0.53648857    -0.04500
C482        C  0.47033056  0.35881454  0.56651473    -0.21900
H483        H  0.44942496  0.35478772  0.62759863     0.19900
H484        H  0.43428837  0.29927374  0.54160123     0.18700
H485        H  0.41166055  0.27802782  0.59307661     0.15000
H486        H  0.47875541  0.37135831  0.57990921     0.14900
H487        H  0.42571605  0.32607510  0.66454221     0.33000
H488        H  0.46529876  0.32289535  0.50890786     0.35800
C489        C  0.25665483  0.22815149  0.71134625     0.21400
C490        C  0.27310874  0.24145598  0.69847723    -0.38500
C491        C  0.29450829  0.23650706  0.70794012     0.20400
C492        C  0.29929136  0.21962501  0.72878466     0.23000
C493        C  0.28274436  0.20630692  0.74185712    -0.39000
C494        C  0.26120462  0.21126422  0.73230520     0.21800
N495        N  0.23501202  0.23002696  0.70659447    -0.32300
C496        C  0.22549251  0.21438651  0.72480352    -0.09800
C497        C  0.24130576  0.20224184  0.74117525    -0.28600
N498        N  0.32102486  0.21855747  0.73411901    -0.45200
C499        C  0.32997385  0.23488502  0.71645786    -0.04500
C500        C  0.31394517  0.24637708  0.69984594    -0.21900
H501        H  0.26948442  0.25481678  0.68239856     0.19900
H502        H  0.28634162  0.19321605  0.75840954     0.18700
H503        H  0.23857665  0.18907315  0.75796296     0.15000
H504        H  0.31621761  0.26021563  0.68409368     0.14900
H505        H  0.22712826  0.24174979  0.69258832     0.33000
H506        H  0.32923859  0.20748578  0.74884662     0.35800
C507        C  0.62626456  0.17157290  0.59177006     0.21400
C508        C  0.61673916  0.17310227  0.56127166    -0.38500
C509        C  0.60581971  0.15435931  0.55045817     0.20400
C510        C  0.60462719  0.13554231  0.56869835     0.23000
C511        C  0.61424450  0.13397146  0.59904439    -0.39000
C512        C  0.62509296  0.15269385  0.60987279     0.21800
N513        N  0.63512411  0.18785808  0.60893249    -0.32300
C514        C  0.63947921  0.17937599  0.63821488    -0.09800
C515        C  0.63371772  0.15737123  0.63957238    -0.28600
N516        N  0.59110572  0.12102776  0.55517163    -0.45200
C517        C  0.58335850  0.13065068  0.52830194    -0.04500
C518        C  0.59239756  0.15138565  0.52424704    -0.21900
H519        H  0.61673622  0.18818027  0.54778478     0.19900
H520        H  0.61232566  0.11963244  0.61390769     0.18700
H521        H  0.63413803  0.14674909  0.66024547     0.15000
H522        H  0.58813319  0.16339875  0.50633613     0.14900
H523        H  0.63684232  0.20411567  0.60181455     0.33000
H524        H  0.58609408  0.10619086  0.56499395     0.35800
C525        C  0.48121646  0.16695225  0.59376865     0.21400
C526        C  0.48143172  0.18663800  0.61078430    -0.38500
C527        C  0.46439167  0.18946953  0.63289513     0.20400
C528        C  0.44817632  0.17400642  0.63751122     0.23000
C529        C  0.44807971  0.15415281  0.62061694    -0.39000
C530        C  0.46530916  0.15120377  0.59862562     0.21800
N531        N  0.49512084  0.16085910  0.57052548    -0.32300
C532        C  0.48815441  0.14104995  0.56048895    -0.09800
C533        C  0.46967634  0.13432908  0.57755935    -0.28600
N534        N  0.43282759  0.18151256  0.65799505    -0.45200
C535        C  0.43949605  0.20181518  0.66644184    -0.04500
C536        C  0.45917359  0.20724173  0.65149157    -0.21900
H537        H  0.49367510  0.19907138  0.60654492     0.19900
H538        H  0.43527335  0.14215013  0.62378467     0.18700
H539        H  0.46044166  0.11942436  0.57445365     0.15000
H540        H  0.46771885  0.22269296  0.65242611     0.14900
H541        H  0.50846049  0.16975342  0.56179058     0.33000
H542        H  0.41829949  0.17377020  0.66462213     0.35800
C543        C  0.53337975  0.00284651  0.49324681     0.21400
C544        C  0.52698395  0.98250942  0.50544673    -0.38500
C545        C  0.53759285  0.96431761  0.49206313     0.20400
C546        C  0.55338176  0.96620618  0.46831939     0.23000
C547        C  0.55984816  0.98657964  0.45618036    -0.39000
C548        C  0.54920394  0.00480074  0.46956178     0.21800
N549        N  0.52520129  0.02250162  0.50122704    -0.32300
C550        C  0.53580313  0.03708715  0.48240336    -0.09800
C551        C  0.55099772  0.02670431  0.46244411    -0.28600
N552        N  0.56022268  0.94637862  0.45860258    -0.45200
C553        C  0.54865319  0.93181988  0.47626637    -0.04500
C554        C  0.53446965  0.94238512  0.49750248    -0.21900
H555        H  0.51437519  0.98094090  0.52360259     0.19900
H556        H  0.57195430  0.98810466  0.43730239     0.18700
H557        H  0.56163423  0.03414387  0.44477893     0.15000
H558        H  0.52289733  0.93499417  0.51391427     0.14900
H559        H  0.51292922  0.02576509  0.51810181     0.33000
H560        H  0.57160477  0.94295357  0.44050802     0.35800
C561        C  0.43651332  0.65107065  0.35907682     0.21400
C562        C  0.41727663  0.66286183  0.35287987    -0.38500
C563        C  0.41834887  0.67735815  0.32697100     0.20400
C564        C  0.43715770  0.67997076  0.30867643     0.23000
C565        C  0.45629126  0.66805254  0.31469384    -0.39000
C566        C  0.45520697  0.65354663  0.34050943     0.21800
N567        N  0.44060716  0.63834440  0.38457252    -0.32300
C568        C  0.46209022  0.63289114  0.38217300    -0.09800
C569        C  0.47162542  0.64181478  0.35483805    -0.28600
N570        N  0.43493291  0.69671034  0.28822822    -0.45200
C571        C  0.41464206  0.70488428  0.29374585    -0.04500
C572        C  0.40367182  0.69305849  0.31734620    -0.21900
H573        H  0.40296022  0.66176165  0.36818476     0.19900
H574        H  0.47130940  0.67079192  0.30142205     0.18700
H575        H  0.48872404  0.64129532  0.34786055     0.15000
H576        H  0.38785367  0.69667739  0.32795458     0.14900
H577        H  0.42994539  0.63490064  0.40348632     0.33000
H578        H  0.44700215  0.70313294  0.27313722     0.35800
C579        C  0.45546232  0.84704266  0.40089081     0.21400
C580        C  0.44225884  0.85054329  0.37401764    -0.38500
C581        C  0.42736976  0.83389953  0.36691496     0.20400
C582        C  0.42561651  0.81525009  0.38547938     0.23000
C583        C  0.43868493  0.81185282  0.41256446    -0.39000
C584        C  0.45377391  0.82838815  0.41942913     0.21800
N585        N  0.47311207  0.85866657  0.40927364    -0.32300
C586        C  0.48297010  0.84721800  0.43290894    -0.09800
C587        C  0.47120670  0.82838617  0.44032674    -0.28600
N588        N  0.41341043  0.80021036  0.37058608    -0.45200
C589        C  0.40781519  0.80908383  0.34208077    -0.04500
C590        C  0.41571849  0.83031450  0.33925278    -0.21900
H591        H  0.44470819  0.86434422  0.35824941     0.19900
H592        H  0.43841493  0.79662595  0.42568783     0.18700
H593        H  0.47591003  0.81545315  0.45655456     0.15000
H594        H  0.41555792  0.84051427  0.31811293     0.14900
H595        H  0.47908978  0.87257830  0.39779061     0.33000
H596        H  0.41119350  0.78401870  0.37774908     0.35800
C597        C  0.25546952  0.73439859  0.22354952     0.21400
C598        C  0.27674331  0.73141597  0.21159587    -0.38500
C599        C  0.29281104  0.74476304  0.22512254     0.20400
C600        C  0.28810916  0.75998101  0.24873905     0.23000
C601        C  0.26677112  0.76302950  0.26064267    -0.39000
C602        C  0.25066012  0.74962652  0.24710745     0.21800
N603        N  0.23730800  0.72388080  0.21431978    -0.32300
C604        C  0.22076493  0.73254124  0.23197168    -0.09800
C605        C  0.22843066  0.74859728  0.25279811    -0.28600
N606        N  0.30651632  0.76983164  0.25868471    -0.45200
C607        C  0.32296909  0.76063831  0.24137482    -0.04500
C608        C  0.31504989  0.74508652  0.22005615    -0.21900
H609        H  0.28054558  0.71942464  0.19332677     0.19900
H610        H  0.26302628  0.77481035  0.27922507     0.18700
H611        H  0.21893074  0.75858277  0.26917918     0.15000
H612        H  0.32443626  0.73468234  0.20409570     0.14900
H613        H  0.23614322  0.71198112  0.19648551     0.33000
H614        H  0.30791381  0.78134760  0.27701983     0.35800
C615        C  0.09919440  0.65166146  0.04453792     0.21400
C616        C  0.11546906  0.64849444  0.06778243    -0.38500
C617        C  0.12117891  0.66700731  0.08571913     0.20400
C618        C  0.11134153  0.68711550  0.08079895     0.23000
C619        C  0.09533713  0.69036320  0.05730517    -0.39000
C620        C  0.08964216  0.67188394  0.03941454     0.21800
N621        N  0.08851545  0.63609198  0.02815781    -0.32300
C622        C  0.07189238  0.64642344  0.01288849    -0.09800
C623        C  0.07237639  0.66883153  0.01879152    -0.28600
N624        N  0.11735411  0.70134439  0.10351104    -0.45200
C625        C  0.13106039  0.69030575  0.12315405    -0.04500
C626        C  0.13417501  0.66890186  0.11258349    -0.21900
H627        H  0.12214812  0.63249850  0.07294342     0.19900
H628        H  0.08688243  0.70581050  0.05462906     0.18700
H629        H  0.06024133  0.68084815  0.01194007     0.15000
H630        H  0.14324383  0.65604080  0.12438657     0.14900
H631        H  0.09108951  0.61927462  0.02971797     0.33000
H632        H  0.11151110  0.71728674  0.10650692     0.35800
C633        C  0.98967001  0.31313318  0.88289556     0.21400
C634        C  0.98496225  0.29366363  0.86682367    -0.38500
C635        C  0.96633734  0.29403677  0.84752133     0.20400
C636        C  0.95309023  0.31231010  0.84470131     0.23000
C637        C  0.95782981  0.33191798  0.86083016    -0.39000
C638        C  0.97677187  0.33165538  0.87988750     0.21800
N639        N  0.00779108  0.31744334  0.89964752    -0.32300
C640        C  0.00687253  0.33895526  0.90691233    -0.09800
C641        C  0.98757082  0.34840746  0.89544217    -0.28600
N642        N  0.93695074  0.30862502  0.82352053    -0.45200
C643        C  0.94022848  0.28796721  0.81268796    -0.04500
C644        C  0.95836820  0.27838580  0.82713933    -0.21900
H645        H  0.99560095  0.27952461  0.86815847     0.19900
H646        H  0.94805841  0.34652461  0.85768111     0.18700
H647        H  0.98293467  0.36547208  0.89618821     0.15000
H648        H  0.96510611  0.26227914  0.82276835     0.14900
H649        H  0.02082505  0.30672136  0.90381455     0.33000
H650        H  0.92488787  0.31963998  0.81619726     0.35800
C651        C  0.12939099  0.30961727  0.78075107     0.21400
C652        C  0.11254043  0.32490187  0.78589330    -0.38500
C653        C  0.11413397  0.33744195  0.81394402     0.20400
C654        C  0.13133094  0.33504845  0.83517583     0.23000
C655        C  0.14832927  0.32003731  0.82977415    -0.39000
C656        C  0.14663329  0.30740113  0.80193156     0.21800
N657        N  0.12956152  0.29322726  0.75925682    -0.32300
C658        C  0.14679529  0.28036031  0.76722269    -0.09800
C659        C  0.15804216  0.28891814  0.79329221    -0.28600
N660        N  0.12705618  0.34564961  0.86269381    -0.45200
C661        C  0.10684321  0.35450969  0.85926347    -0.04500
C662        C  0.09850769  0.35022317  0.82887492    -0.21900
H663        H  0.09827293  0.32564252  0.77065288     0.19900
H664        H  0.16092779  0.31705520  0.84738898     0.18700
H665        H  0.17130453  0.28132584  0.80634481     0.15000
H666        H  0.08210934  0.35359040  0.82042525     0.14900
H667        H  0.11748951  0.28984367  0.74231715     0.33000
H668        H  0.13625334  0.34489017  0.88366771     0.35800
C669        C  0.03767961  0.47099954  0.97097823     0.21400
C670        C  0.02361480  0.48635022  0.98532499    -0.38500
C671        C  0.02625743  0.50799180  0.97510663     0.20400
C672        C  0.04171738  0.51386053  0.95234171     0.23000
C673        C  0.05575649  0.49851171  0.93799018    -0.39000
C674        C  0.05313450  0.47689046  0.94822191     0.21800
N675        N  0.03805645  0.44933729  0.97587463    -0.32300
C676        C  0.05376698  0.44139747  0.95596888    -0.09800
C677        C  0.06365155  0.45808777  0.93848619    -0.28600
N678        N  0.04138073  0.53551415  0.94738526    -0.45200
C679        C  0.02569356  0.54351125  0.96725685    -0.04500
C680        C  0.01577038  0.52684054  0.98479056    -0.21900
H681        H  0.01152922  0.48178372  0.00312408     0.19900
H682        H  0.06783224  0.50307233  0.92017370     0.18700
H683        H  0.07630136  0.45656865  0.92036278     0.15000
H684        H  0.00308049  0.52839644  0.00284716     0.14900
H685        H  0.02784011  0.44042429  0.99115671     0.33000
H686        H  0.05157440  0.54437764  0.93202887     0.35800
C687        C  0.11522256  0.83804908  0.11768520     0.21400
C688        C  0.13442140  0.82712341  0.12677343    -0.38500
C689        C  0.13237871  0.81302455  0.15301294     0.20400
C690        C  0.11269896  0.81006378  0.16907565     0.23000
C691        C  0.09358059  0.82117958  0.16022649    -0.39000
C692        C  0.09561498  0.83526905  0.13400749     0.21800
N693        N  0.11200437  0.84917257  0.09040336    -0.32300
C694        C  0.09019042  0.85324434  0.08926121    -0.09800
C695        C  0.07952448  0.84527653  0.11636086    -0.28600
N696        N  0.11411796  0.79327510  0.18960041    -0.45200
C697        C  0.13471042  0.78530429  0.18622926    -0.04500
C698        C  0.14671576  0.79743566  0.16407773    -0.21900
H699        H  0.14940535  0.82819962  0.11289915     0.19900
H700        H  0.07789854  0.81782824  0.17136873     0.18700
H701        H  0.06203219  0.84455103  0.12062046     0.15000
H702        H  0.16290638  0.79381743  0.15475601     0.14900
H703        H  0.12352141  0.85194564  0.07232061     0.33000
H704        H  0.10126238  0.78634392  0.20267451     0.35800
C705        C  0.94160897  0.13317255  0.83098957     0.21400
C706        C  0.94475915  0.14375949  0.80155228    -0.38500
C707        C  0.92859256  0.15893510  0.79296998     0.20400
C708        C  0.91047594  0.16303329  0.81215868     0.23000
C709        C  0.90716834  0.15222991  0.84140515    -0.39000
C710        C  0.92350372  0.13728821  0.85021434     0.21800
N711        N  0.95661309  0.12152673  0.84701800    -0.32300
C712        C  0.94834385  0.11865653  0.87686470    -0.09800
C713        C  0.92746200  0.12779471  0.87957674    -0.28600
N714        N  0.89954651  0.18065785  0.80162530    -0.45200
C715        C  0.91092594  0.18808220  0.77590934    -0.04500
C716        C  0.92891671  0.17468361  0.76935285    -0.21900
H717        H  0.95968086  0.14175229  0.78773293     0.19900
H718        H  0.89387485  0.15659168  0.85744881     0.18700
H719        H  0.91776388  0.12967086  0.90117434     0.15000
H720        H  0.94181571  0.17751552  0.75198845     0.14900
H721        H  0.97252906  0.11791272  0.83924939     0.33000
H722        H  0.88634069  0.18832761  0.81298945     0.35800
C723        C  0.09173165  0.17956271  0.85115679     0.21400
C724        C  0.07288311  0.18275473  0.86998216    -0.38500
C725        C  0.06533833  0.16434744  0.88657422     0.20400
C726        C  0.07573755  0.14427515  0.88447719     0.23000
C727        C  0.09450976  0.14104689  0.86544241    -0.39000
C728        C  0.10213482  0.15949588  0.84895014     0.21800
N729        N  0.10147460  0.19419641  0.83195124    -0.32300
C730        C  0.11814402  0.18340495  0.81724597    -0.09800
C731        C  0.11919279  0.16173222  0.82736888    -0.28600
N732        N  0.06473639  0.12914388  0.90134871    -0.45200
C733        C  0.04715131  0.13964039  0.91411589    -0.04500
C734        C  0.04699138  0.16163430  0.90550255    -0.21900
H735        H  0.06446082  0.19831722  0.87110707     0.19900
H736        H  0.10234687  0.12524169  0.86316024     0.18700
H737        H  0.13028728  0.14911389  0.81901985     0.15000
H738        H  0.03462138  0.17375368  0.91117052     0.14900
H739        H  0.09658903  0.21035927  0.82820628     0.33000
H740        H  0.06843564  0.11253952  0.90295095     0.35800
C741        C  0.02756884  0.00815116  0.98258275     0.21400
C742        C  0.04149148  0.99343429  0.99824112    -0.38500
C743        C  0.04031592  0.97170147  0.98788183     0.20400
C744        C  0.02633468  0.96508634  0.96377030     0.23000
C745        C  0.01236246  0.97981252  0.94812369    -0.39000
C746        C  0.01353999  0.00158316  0.95849961     0.21800
N747        N  0.02559180  0.02967986  0.98807570    -0.32300
C748        C  0.01016123  0.03689122  0.96741076    -0.09800
C749        C  0.00225206  0.01985717  0.94853818    -0.28600
N750        N  0.02777675  0.94339598  0.95921879    -0.45200
C751        C  0.04269368  0.93620400  0.98071748    -0.04500
C752        C  0.05094992  0.95338036  0.99889406    -0.21900
H753        H  0.05230494  0.99849942  0.01729043     0.19900
H754        H  0.00126976  0.97467276  0.92946642     0.18700
H755        H  0.99004844  0.02077449  0.92988467     0.15000
H756        H  0.06255133  0.95245431  0.01835272     0.14900
H757        H  0.03427978  0.03892584  0.00475734     0.33000
H758        H  0.01864712  0.93397850  0.94327323     0.35800
C759        C  0.61722362  0.81827239  0.36086550     0.21400
C760        C  0.63682084  0.80687775  0.35473664    -0.38500
C761        C  0.63628367  0.79205454  0.32905272     0.20400
C762        C  0.61765468  0.78888780  0.31085555     0.23000
C763        C  0.59826185  0.80057028  0.31657939    -0.39000
C764        C  0.59877250  0.81530297  0.34222601     0.21800
N765        N  0.61244913  0.83069628  0.38659845    -0.32300
C766        C  0.59078823  0.83544069  0.38431514    -0.09800
C767        C  0.58184613  0.82647390  0.35667943    -0.28600
N768        N  0.62032149  0.77195290  0.29073054    -0.45200
C769        C  0.64075817  0.76420247  0.29613000    -0.04500
C770        C  0.65135931  0.77650088  0.31954618    -0.21900
H771        H  0.65096756  0.80838417  0.37008577     0.19900
H772        H  0.58340603  0.79736944  0.30336162     0.18700
H773        H  0.56479013  0.82640978  0.34971196     0.15000
H774        H  0.66726473  0.77338972  0.32995674     0.14900
H775        H  0.62281806  0.83432543  0.40564293     0.33000
H776        H  0.60850256  0.76526919  0.27562864     0.35800
C777        C  0.62540658  0.65552852  0.38297851     0.21400
C778        C  0.61243013  0.65863825  0.41050881    -0.38500
C779        C  0.59732733  0.64200807  0.41732444     0.20400
C780        C  0.59563647  0.62351889  0.39840023     0.23000
C781        C  0.60862633  0.62038272  0.37100632    -0.39000
C782        C  0.62343948  0.63712315  0.36392831     0.21800
N783        N  0.63811563  0.67047408  0.36851070    -0.32300
C784        C  0.64380551  0.66173412  0.33980467    -0.09800
C785        C  0.63532510  0.64077639  0.33636175    -0.28600
N786        N  0.57825995  0.61156245  0.40721726    -0.45200
C787        C  0.56843679  0.62265131  0.43144439    -0.04500
C788        C  0.58002653  0.64161071  0.43880971    -0.21900
H789        H  0.61289913  0.67364601  0.42419389     0.19900
H790        H  0.60619533  0.60668229  0.35503264     0.18700
H791        H  0.63574700  0.63062179  0.31514179     0.15000
H792        H  0.57535586  0.65429638  0.45558328     0.14900
H793        H  0.64088863  0.68645525  0.37625958     0.33000
H794        H  0.57236329  0.59767951  0.39560679     0.35800
C795        C  0.92936203  0.66514860  0.13311971     0.21400
C796        C  0.92740958  0.65388748  0.10402207    -0.38500
C797        C  0.94634509  0.64307954  0.09329451     0.20400
C798        C  0.96572295  0.64335321  0.11039165     0.23000
C799        C  0.96762780  0.65448606  0.13957417    -0.39000
C800        C  0.94872666  0.66535196  0.15024787     0.21800
N801        N  0.91492460  0.67939899  0.14567711    -0.32300
C802        C  0.92526748  0.68888918  0.17070690    -0.09800
C803        C  0.94621421  0.68026130  0.17467943    -0.28600
N804        N  0.98206503  0.63438789  0.09319785    -0.45200
C805        C  0.97313102  0.62869553  0.06479461    -0.04500
C806        C  0.95081501  0.63354896  0.06409729    -0.21900
H807        H  0.91269829  0.65473786  0.08971732     0.19900
H808        H  0.98309775  0.65581164  0.15196508     0.18700
H809        H  0.95875527  0.68591325  0.19090337     0.15000
H810        H  0.93981928  0.63203898  0.04398022     0.14900
H811        H  0.89979875  0.68380742  0.13607567     0.33000
H812        H  0.99862150  0.63379581  0.09940044     0.35800
C813        C  0.96481951  0.83046537  0.05503827     0.21400
C814        C  0.94842803  0.83257807  0.07861677    -0.38500
C815        C  0.94174199  0.81307863  0.09332279     0.20400
C816        C  0.95076205  0.79306683  0.08503829     0.23000
C817        C  0.96676091  0.79089557  0.06114522    -0.39000
C818        C  0.97345335  0.81031236  0.04656593     0.21800
N819        N  0.97674764  0.84663366  0.04198333    -0.32300
C820        C  0.99325742  0.83662554  0.02574902    -0.09800
C821        C  0.99136788  0.81400929  0.02734640    -0.28600
N822        N  0.94402691  0.77746916  0.10521102    -0.45200
C823        C  0.93058213  0.78748504  0.12652527    -0.04500
C824        C  0.92843577  0.80967827  0.11971047    -0.21900
H825        H  0.94248676  0.84836185  0.08654273     0.19900
H826        H  0.97462351  0.77540730  0.05599986     0.18700
H827        H  0.00311699  0.80196973  0.01903869     0.15000
H828        H  0.91972301  0.82188812  0.13358113     0.14900
H829        H  0.97518095  0.86331007  0.04672870     0.33000
H830        H  0.94912744  0.76116116  0.10542090     0.35800
C831        C  0.80220447  0.73843483  0.21950494     0.21400
C832        C  0.78106844  0.74045526  0.20683817    -0.38500
C833        C  0.76464489  0.72886836  0.22300842     0.20400
C834        C  0.76896610  0.71621643  0.24970167     0.23000
C835        C  0.79007155  0.71431066  0.26248912    -0.39000
C836        C  0.80649976  0.72588812  0.24631174     0.21800
N837        N  0.82072833  0.74725373  0.20793799    -0.32300
C838        C  0.83691873  0.74020015  0.22746505    -0.09800
C839        C  0.82869649  0.72692250  0.25177174    -0.28600
N840        N  0.75054720  0.70692007  0.26076745    -0.45200
C841        C  0.73439086  0.71383939  0.24110955    -0.04500
C842        C  0.74250721  0.72754311  0.21724951    -0.21900
H843        H  0.77768655  0.75022690  0.18585914     0.19900
H844        H  0.79347183  0.70442224  0.28334370     0.18700
H845        H  0.83780955  0.71866370  0.27034686     0.15000
H846        H  0.73337954  0.73573328  0.19862341     0.14900
H847        H  0.82233845  0.75699405  0.18758801     0.33000
H848        H  0.74896666  0.69694678  0.28089847     0.35800
C849        C  0.44459854  0.15503089  0.32398280     0.21400
C850        C  0.44401972  0.13915018  0.34829688    -0.38500
C851        C  0.46380299  0.13574754  0.36472677     0.20400
C852        C  0.48269361  0.14717633  0.35728813     0.23000
C853        C  0.48323381  0.16300936  0.33307444    -0.39000
C854        C  0.46349397  0.16649949  0.31683239     0.21800
N855        N  0.42803609  0.16147311  0.30493597    -0.32300
C856        C  0.43654523  0.17716235  0.28557824    -0.09800
C857        C  0.45857823  0.18073726  0.29238374    -0.28600
N858        N  0.49899357  0.14183646  0.37731814    -0.45200
C859        C  0.49045161  0.12712176  0.39803510    -0.04500
C860        C  0.46856112  0.12274154  0.39079376    -0.21900
H861        H  0.42920445  0.13036606  0.35433013     0.19900
H862        H  0.49790251  0.17219330  0.32759746     0.18700
H863        H  0.46960956  0.19203635  0.28068373     0.15000
H864        H  0.45737380  0.11227524  0.40379094     0.14900
H865        H  0.41210363  0.15545050  0.30486120     0.33000
H866        H  0.51470497  0.14863853  0.37786556     0.35800
C867        C  0.11083302  0.29852468  0.10997274     0.21400
C868        C  0.09250585  0.30109538  0.09010101    -0.38500
C869        C  0.09422023  0.31740444  0.06661711     0.20400
C870        C  0.11279114  0.33012093  0.06314398     0.23000
C871        C  0.13108630  0.32758307  0.08300688    -0.39000
C872        C  0.12932965  0.31136868  0.10656690     0.21800
N873        N  0.11320850  0.28446967  0.13444116    -0.32300
C874        C  0.13326923  0.28852202  0.14684405    -0.09800
C875        C  0.14381335  0.30517618  0.13006035    -0.28600
N876        N  0.11046435  0.34430886  0.03884370    -0.45200
C877        C  0.09024837  0.34058639  0.02672109    -0.04500
C878        C  0.07960002  0.32395873  0.04343882    -0.21900
H879        H  0.07796885  0.29117378  0.09278255     0.19900
H880        H  0.14558996  0.33756610  0.08041025     0.18700
H881        H  0.15980641  0.31203396  0.13473729     0.15000
H882        H  0.06349362  0.31733265  0.03889914     0.14900
H883        H  0.10167141  0.27312656  0.14268368     0.33000
H884        H  0.12197967  0.35555411  0.03074191     0.35800
C885        C  0.26404051  0.24478703  0.23400951     0.21400
C886        C  0.28438695  0.24628682  0.24942681    -0.38500
C887        C  0.30138285  0.23370688  0.23602464     0.20400
C888        C  0.29827209  0.22063429  0.20938363     0.23000
C889        C  0.27797772  0.21915496  0.19399562    -0.39000
C890        C  0.26102796  0.23172601  0.20733935     0.21800
N891        N  0.24511602  0.25448889  0.24262120    -0.32300
C892        C  0.22995309  0.24737869  0.22142637    -0.09800
C893        C  0.23930758  0.23331525  0.19890309    -0.28600
N894        N  0.31709419  0.21093839  0.20053681    -0.45200
C895        C  0.33239365  0.21800864  0.22146604    -0.04500
C896        C  0.32321569  0.23212074  0.24414679    -0.21900
H897        H  0.28681134  0.25651389  0.27024583     0.19900
H898        H  0.27556761  0.20896086  0.17313640     0.18700
H899        H  0.23112468  0.22471066  0.17976175     0.15000
H900        H  0.33156755  0.24077313  0.26308217     0.14900
H901        H  0.24249825  0.26464144  0.26237666     0.33000
H902        H  0.31956798  0.20084040  0.18067611     0.35800
C903        C  0.44742877  0.68221689  0.62115431     0.21400
C904        C  0.45969772  0.68420667  0.59284659    -0.38500
C905        C  0.46477385  0.66457690  0.57714184     0.20400
C906        C  0.45811463  0.64445519  0.58862853     0.23000
C907        C  0.44587923  0.64244109  0.61703128    -0.39000
C908        C  0.44082698  0.66210670  0.63279599     0.21800
N909        N  0.44053609  0.69841419  0.64049649    -0.32300
C910        C  0.42950386  0.68856545  0.66467978    -0.09800
C911        C  0.42932143  0.66593370  0.66071720    -0.28600
N912        N  0.46470142  0.62832601  0.56882902    -0.45200
C913        C  0.47566432  0.63836547  0.54465953    -0.04500
C914        C  0.47607202  0.66091611  0.54906677    -0.21900
H915        H  0.46485176  0.69989999  0.58365491     0.19900
H916        H  0.44061373  0.62675755  0.62612372     0.18700
H917        H  0.42188621  0.65391278  0.67629469     0.15000
H918        H  0.48331265  0.67303954  0.53346857     0.14900
H919        H  0.44330886  0.71515218  0.63755434     0.33000
H920        H  0.46172789  0.61168761  0.57136676     0.35800
C921        C  0.10983112  0.82189500  0.88904203     0.21400
C922        C  0.12686888  0.82139366  0.86638158    -0.38500
C923        C  0.12637767  0.80388867  0.84471670     0.20400
C924        C  0.11028171  0.78800122  0.84579185     0.23000
C925        C  0.09334433  0.78844454  0.86853946    -0.39000
C926        C  0.09371479  0.80603575  0.88996917     0.21800
N927        N  0.10584283  0.83748782  0.91100526    -0.32300
C928        C  0.08693383  0.83153782  0.92570029    -0.09800
C929        C  0.07899466  0.81194021  0.91346431    -0.28600
N930        N  0.11295014  0.77359867  0.82186225    -0.45200
C931        C  0.13077102  0.78040439  0.80531145    -0.04500
C932        C  0.13966474  0.79921386  0.81884933    -0.21900
H933        H  0.13923474  0.83400144  0.86515563     0.19900
H934        H  0.08049191  0.77630658  0.86896519     0.18700
H935        H  0.06413947  0.80348157  0.92026012     0.15000
H936        H  0.15366322  0.80844362  0.81049162     0.14900
H937        H  0.11503616  0.85149290  0.91516510     0.33000
H938        H  0.10294311  0.76020700  0.81665234     0.35800
C939        C  0.25921169  0.74138236  0.72031873     0.21400
C940        C  0.27960747  0.74818424  0.70868134    -0.38500
C941        C  0.29779701  0.73770255  0.72191026     0.20400
C942        C  0.29586845  0.72163782  0.74502911     0.23000
C943        C  0.27537642  0.71481568  0.75677219    -0.39000
C944        C  0.25709709  0.72538940  0.74352809     0.21800
N945        N  0.23955976  0.74896603  0.71148497    -0.32300
C946        C  0.22472670  0.73787467  0.72922917    -0.09800
C947        C  0.23496390  0.72298346  0.74960376    -0.28600
N948        N  0.31577118  0.71455578  0.75404788    -0.45200
C949        C  0.33034507  0.72624308  0.73647495    -0.04500
C950        C  0.31975596  0.74080269  0.71615342    -0.21900
H951        H  0.28119222  0.76081258  0.69072079     0.19900
H952        H  0.27379873  0.70234211  0.77496068     0.18700
H953        H  0.22728003  0.71189506  0.76636807     0.15000
H954        H  0.32714496  0.75236453  0.69979746     0.14900
H955        H  0.23642603  0.76104565  0.69449496     0.33000
H956        H  0.31923332  0.70274197  0.77127380     0.35800
C957        C  0.96055145  0.82057379  0.37647762     0.21400
C958        C  0.94245639  0.82043648  0.35590708    -0.38500
C959        C  0.94256027  0.80409502  0.33236896     0.20400
C960        C  0.95927308  0.78885428  0.32973400     0.23000
C961        C  0.97750051  0.78912254  0.35015030    -0.39000
C962        C  0.97753485  0.80566926  0.37347334     0.21800
N963        N  0.96441866  0.83465737  0.40048151    -0.32300
C964        C  0.98419190  0.82892462  0.41254872    -0.09800
C965        C  0.99288685  0.81089359  0.39638171    -0.28600
N966        N  0.95540835  0.77499699  0.30542139    -0.45200
C967        C  0.93623174  0.78162173  0.29232584    -0.04500
C968        C  0.92775663  0.79974631  0.30844024    -0.21900
H969        H  0.92933696  0.83229580  0.35791684     0.19900
H970        H  0.99075444  0.77743759  0.34786575     0.18700
H971        H  0.00832965  0.80274071  0.40079609     0.15000
H972        H  0.91278778  0.80855594  0.30329285     0.14900
H973        H  0.95444309  0.84756964  0.40782354     0.33000
H974        H  0.96536198  0.76200374  0.29789125     0.35800
C975        C  0.09554463  0.81189961  0.55075999     0.21400
C976        C  0.10300461  0.79168623  0.56215210    -0.38500
C977        C  0.11533302  0.79238310  0.59034255     0.20400
C978        C  0.11998037  0.81172711  0.60606114     0.23000
C979        C  0.11252423  0.83195900  0.59466802    -0.39000
C980        C  0.10017453  0.83127383  0.56643211     0.21800
N981        N  0.08104024  0.81525658  0.52716639    -0.32300
C982        C  0.07610691  0.83684134  0.52814554    -0.09800
C983        C  0.08807955  0.84743254  0.55187645    -0.28600
N984        N  0.13046213  0.80778674  0.63372827    -0.45200
C985        C  0.13228723  0.78576547  0.63564390    -0.04500
C986        C  0.12315312  0.77563645  0.60899007    -0.21900
H987        H  0.09858208  0.77643200  0.55081501     0.19900
H988        H  0.11519745  0.84700051  0.60768498     0.18700
H989        H  0.08627927  0.86418030  0.55979897     0.15000
H990        H  0.12155616  0.75829202  0.60459380     0.14900
H991        H  0.07338695  0.80327136  0.51339053     0.33000
H992        H  0.13511541  0.81924437  0.65090216     0.35800
C993        C  0.08052972  0.15621158  0.57647343     0.21400
C994        C  0.07977354  0.17383810  0.59799195    -0.38500
C995        C  0.09722693  0.17505541  0.61965939     0.20400
C996        C  0.11395213  0.15972940  0.62000167     0.23000
C997        C  0.11469871  0.14215672  0.59850049    -0.39000
C998        C  0.09741007  0.14106784  0.57668174     0.21800
N999        N  0.06646792  0.15192632  0.55264043    -0.32300
C1000       C  0.07465034  0.13404988  0.53748732    -0.09800
C1001       C  0.09385875  0.12675554  0.55183822    -0.28600
N1002       N  0.12868350  0.16457252  0.64260247    -0.45200
C1003       C  0.12147180  0.18320390  0.65664639    -0.04500
C1004       C  0.10185603  0.19027941  0.64303815    -0.21900
H1005       H  0.06677688  0.18589411  0.59754601     0.19900
H1006       H  0.12797291  0.13039891  0.59843030     0.18700
H1007       H  0.10413879  0.11319061  0.54453394     0.15000
H1008       H  0.09227264  0.20453550  0.64947076     0.14900
H1009       H  0.05263260  0.16091493  0.54649954     0.33000
H1010       H  0.14291169  0.15577507  0.64804487     0.35800
C1011       C  0.11012420  0.14877408  0.34213889     0.21400
C1012       C  0.12982290  0.15886192  0.33317039    -0.38500
C1013       C  0.12900558  0.17169781  0.30539845     0.20400
C1014       C  0.10995449  0.17454339  0.28802940     0.23000
C1015       C  0.09027219  0.16431107  0.29688319    -0.39000
C1016       C  0.09114569  0.15128921  0.32449985     0.21800
N1017       N  0.10616991  0.13734665  0.36902514    -0.32300
C1018       C  0.08450824  0.13256571  0.36850445    -0.09800
C1019       C  0.07463930  0.14081988  0.34098374    -0.28600
N1020       N  0.11282856  0.18967906  0.26504218    -0.45200
C1021       C  0.13384868  0.19650869  0.26786356    -0.04500
C1022       C  0.14450523  0.18540870  0.29245108    -0.21900
H1023       H  0.14447616  0.15758903  0.34753395     0.19900
H1024       H  0.07515902  0.16706032  0.28404808     0.18700
H1025       H  0.05743139  0.14040277  0.33489233     0.15000
H1026       H  0.16077336  0.18847272  0.30158751     0.14900
H1027       H  0.11725353  0.13396940  0.38733047     0.33000
H1028       H  0.10082945  0.19605506  0.24991833     0.35800
C1029       C  0.03185364  0.96407490  0.45671430     0.21400
C1030       C  0.04226347  0.98067879  0.43921584    -0.38500
C1031       C  0.03801679  0.00210187  0.44959069     0.20400
C1032       C  0.02442231  0.00664728  0.47539455     0.23000
C1033       C  0.01392850  0.99006792  0.49278112    -0.39000
C1034       C  0.01821357  0.96865978  0.48245219     0.21800
N1035       N  0.03371585  0.94237018  0.45232668    -0.32300
C1036       C  0.02120219  0.93310454  0.47550094    -0.09800
C1037       C  0.01124017  0.94898193  0.49466990    -0.28600
N1038       N  0.02350193  0.02826058  0.48093786    -0.45200
C1039       C  0.03661353  0.03754802  0.45851328    -0.04500
C1040       C  0.04588486  0.02177303  0.43845234    -0.21900
H1041       H  0.05309699  0.97716913  0.41926506     0.19900
H1042       H  0.00344164  0.99355916  0.51313069     0.18700
H1043       H  0.00062573  0.94643843  0.51515215     0.15000
H1044       H  0.05705975  0.02435029  0.41862704     0.14900
H1045       H  0.04318261  0.93435698  0.43500011     0.33000
H1046       H  0.01461219  0.03619833  0.49898105     0.35800
C1047       C  0.60045880  0.78322960  0.62144532     0.21400
C1048       C  0.58621014  0.78175255  0.59530566    -0.38500
C1049       C  0.58175848  0.80144545  0.57951120     0.20400
C1050       C  0.59084505  0.82108456  0.58901369     0.23000
C1051       C  0.60499823  0.82259597  0.61524764    -0.39000
C1052       C  0.60941687  0.80291284  0.63106372     0.21800
N1053       N  0.60742755  0.76688034  0.64022102    -0.32300
C1054       C  0.62080854  0.77622381  0.66200852    -0.09800
C1055       C  0.62248082  0.79867971  0.65709057    -0.28600
N1056       N  0.58493310  0.83725583  0.56911924    -0.45200
C1057       C  0.57204477  0.82778589  0.54674033    -0.04500
C1058       C  0.56952526  0.80551890  0.55254246    -0.21900
H1059       H  0.57933172  0.76636308  0.58758921     0.19900
H1060       H  0.61224824  0.83790884  0.62255834     0.18700
H1061       H  0.63189947  0.81031938  0.67080455     0.15000
H1062       H  0.56071003  0.79376113  0.53820925     0.14900
H1063       H  0.60317442  0.75034627  0.63850366     0.33000
H1064       H  0.58989481  0.85346567  0.57009009     0.35800
C1065       C  0.93314528  0.66802001  0.82590454     0.21400
C1066       C  0.93494190  0.64952722  0.84554439    -0.38500
C1067       C  0.95379950  0.64846294  0.86455378     0.20400
C1068       C  0.96964070  0.66459747  0.86408452     0.23000
C1069       C  0.96778225  0.68314083  0.84456675    -0.39000
C1070       C  0.94893435  0.68420164  0.82554586     0.21800
N1071       N  0.91759625  0.67210539  0.80400302    -0.32300
C1072       C  0.92365950  0.69094103  0.78943726    -0.09800
C1073       C  0.94294471  0.69912262  0.80252235    -0.28600
N1074       N  0.98583686  0.65985789  0.88462587    -0.45200
C1075       C  0.98022334  0.64064643  0.89842411    -0.04500
C1076       C  0.96039232  0.63297155  0.88639526    -0.21900
H1077       H  0.92270988  0.63676654  0.84570222     0.19900
H1078       H  0.98024339  0.69567202  0.84391305     0.18700
H1079       H  0.95209590  0.71329554  0.79478754     0.15000
H1080       H  0.95165337  0.61837667  0.89343332     0.14900
H1081       H  0.90438381  0.66216052  0.79820158     0.33000
H1082       H  0.99959237  0.66943599  0.88963519     0.35800
C1083       C  0.93157707  0.80223850  0.63752426     0.21400
C1084       C  0.92994133  0.81774261  0.61293659    -0.38500
C1085       C  0.94971611  0.82728928  0.60309567     0.20400
C1086       C  0.96959338  0.82183720  0.61683630     0.23000
C1087       C  0.97120391  0.80646516  0.64155623    -0.39000
C1088       C  0.95146734  0.79685631  0.65126816     0.21800
N1089       N  0.91570580  0.78885599  0.64806823    -0.32300
C1090       C  0.92564635  0.77470982  0.66829709    -0.09800
C1091       C  0.94787187  0.77937211  0.67126431    -0.28600
N1092       N  0.98623698  0.83081834  0.60044726    -0.45200
C1093       C  0.97696071  0.84182037  0.57586272    -0.04500
C1094       C  0.95418081  0.84034668  0.57701855    -0.21900
H1095       H  0.91461041  0.82109938  0.60097917     0.19900
H1096       H  0.98684689  0.80133853  0.65109668     0.18700
H1097       H  0.96007318  0.77007770  0.68416413     0.15000
H1098       H  0.94262952  0.84623256  0.55943339     0.14900
H1099       H  0.89951935  0.78834340  0.64017762     0.33000
H1100       H  0.00294505  0.82818155  0.60426223     0.35800
C1101       C  0.79101709  0.71945095  0.70438643     0.21400
C1102       C  0.77029628  0.71235948  0.69459412    -0.38500
C1103       C  0.75250938  0.72405313  0.70727162     0.20400
C1104       C  0.75517434  0.74135510  0.72826715     0.23000
C1105       C  0.77587754  0.74842652  0.73807226    -0.39000
C1106       C  0.79366281  0.73682266  0.72525788     0.21800
N1107       N  0.81052258  0.71118950  0.69560012    -0.32300
C1108       C  0.82563222  0.72342451  0.71098865    -0.09800
C1109       C  0.81578464  0.73956317  0.72971584    -0.28600
N1110       N  0.73569900  0.74943045  0.73747420    -0.45200
C1111       C  0.72057983  0.73721211  0.72214112    -0.04500
C1112       C  0.73037331  0.72125347  0.70301667    -0.21900
H1113       H  0.76818559  0.69875479  0.67834997     0.19900
H1114       H  0.77797567  0.76193381  0.75449370     0.18700
H1115       H  0.82374576  0.75171549  0.74441937     0.15000
H1116       H  0.72236782  0.70892544  0.68868129     0.14900
H1117       H  0.81338623  0.69812921  0.68002349     0.33000
H1118       H  0.73285746  0.76219364  0.75358150     0.35800
C1119       C  0.46705712  0.82473260  0.10060147     0.21400
C1120       C  0.46949779  0.81892473  0.13289372    -0.38500
C1121       C  0.45102163  0.80955776  0.14747099     0.20400
C1122       C  0.43164783  0.80627533  0.13108586     0.23000
C1123       C  0.42911904  0.81230646  0.09898446    -0.39000
C1124       C  0.44757305  0.82159494  0.08441274     0.21800
N1125       N  0.48246117  0.83277042  0.08082164    -0.32300
C1126       C  0.47272824  0.83461111  0.05187531    -0.09800
C1127       C  0.45091084  0.82800981  0.05323684    -0.28600
N1128       N  0.41666859  0.79666256  0.14995363    -0.45200
C1129       C  0.42651111  0.79394164  0.17865931    -0.04500
C1130       C  0.44794294  0.80178821  0.17813139    -0.21900
H1131       H  0.48475727  0.82116801  0.14554062     0.19900
H1132       H  0.41402761  0.80956867  0.08611461     0.18700
H1133       H  0.43929487  0.82730622  0.03377761     0.15000
H1134       H  0.45963969  0.80179415  0.19750705     0.14900
H1135       H  0.49879067  0.83623161  0.08645152     0.33000
H1136       H  0.40073253  0.79241912  0.14380956     0.35800
C1137       C  0.57520728  0.78993985  0.90386966     0.21400
C1138       C  0.57841337  0.77177578  0.88399575    -0.38500
C1139       C  0.59694340  0.77250428  0.86417078     0.20400
C1140       C  0.61143155  0.78987134  0.86422140     0.23000
C1141       C  0.60826826  0.80805407  0.88421685    -0.39000
C1142       C  0.58956382  0.80742128  0.90392030     0.21800
N1143       N  0.55731061  0.79443658  0.92153640    -0.32300
C1144       C  0.56008070  0.81504992  0.93253478    -0.09800
C1145       C  0.58015358  0.82355665  0.92247037    -0.28600
N1146       N  0.62656816  0.78747077  0.84092482    -0.45200
C1147       C  0.62130530  0.76863268  0.82579390    -0.04500
C1148       C  0.60312664  0.75877011  0.83979250    -0.21900
H1149       H  0.56665114  0.75861291  0.88270727     0.19900
H1150       H  0.61887437  0.82217235  0.88320239     0.18700
H1151       H  0.58606435  0.84005657  0.92569244     0.15000
H1152       H  0.59487281  0.74406882  0.83207307     0.14900
H1153       H  0.54325599  0.78482600  0.92362008     0.33000
H1154       H  0.63886966  0.79849529  0.83458747     0.35800
C1155       C  0.45812569  0.83430937  0.83354644     0.21400
C1156       C  0.46012213  0.82343504  0.80412658    -0.38500
C1157       C  0.44124863  0.81282859  0.79331898     0.20400
C1158       C  0.42173014  0.81331613  0.81039059     0.23000
C1159       C  0.41965281  0.82447483  0.83958624    -0.39000
C1160       C  0.43861549  0.83479149  0.85062387     0.21800
N1161       N  0.47460573  0.84184523  0.85151258    -0.32300
C1162       C  0.46565465  0.84673308  0.88036994    -0.09800
C1163       C  0.44314842  0.84300913  0.88057684    -0.28600
N1164       N  0.40767445  0.79855705  0.79870650    -0.45200
C1165       C  0.41845641  0.78820512  0.77464136    -0.04500
C1166       C  0.43922752  0.79707400  0.76994810    -0.21900
H1167       H  0.47576977  0.82160354  0.79209231     0.19900
H1168       H  0.40495614  0.82341540  0.85410858     0.18700
H1169       H  0.43211947  0.84383942  0.90091683     0.15000
H1170       H  0.45216470  0.79075257  0.75469766     0.14900
H1171       H  0.49125266  0.84165964  0.84553662     0.33000
H1172       H  0.39274672  0.79400189  0.80899892     0.35800
C1173       C  0.60654129  0.14973814  0.89113352     0.21400
C1174       C  0.62626868  0.15599843  0.87635042    -0.38500
C1175       C  0.62433365  0.17107407  0.85122398     0.20400
C1176       C  0.60427652  0.17935242  0.84171821     0.23000
C1177       C  0.58456462  0.17319445  0.85663464    -0.39000
C1178       C  0.58648236  0.15801387  0.88160798     0.21800
N1179       N  0.60392184  0.13528265  0.91498808    -0.32300
C1180       C  0.58207281  0.13428536  0.92072378    -0.09800
C1181       C  0.57062164  0.14824846  0.90036755    -0.28600
N1182       N  0.60663608  0.19228712  0.81592925    -0.45200
C1183       C  0.62834388  0.19209063  0.80874885    -0.04500
C1184       C  0.63995426  0.17923853  0.83045993    -0.21900
H1185       H  0.64191383  0.14923257  0.88340378     0.19900
H1186       H  0.56883888  0.17937808  0.84886859     0.18700
H1187       H  0.55310220  0.15094973  0.89952226     0.15000
H1188       H  0.65728865  0.17547887  0.83009935     0.14900
H1189       H  0.61630806  0.12660162  0.92675861     0.33000
H1190       H  0.59420858  0.19996340  0.80324169     0.35800
C1191       C  0.46552744  0.14066547  0.04627789     0.21400
C1192       C  0.45482257  0.16035223  0.05330582    -0.38500
C1193       C  0.44051778  0.15992714  0.07957839     0.20400
C1194       C  0.43689512  0.14123103  0.09744424     0.23000
C1195       C  0.44750934  0.12142652  0.09023681    -0.39000
C1196       C  0.46203347  0.12191100  0.06406578     0.21800
N1197       N  0.48221697  0.13786148  0.02565178    -0.32300
C1198       C  0.48964710  0.11730269  0.03053069    -0.09800
C1199       C  0.47728221  0.10669085  0.05398547    -0.28600
N1200       N  0.42520615  0.14595331  0.12397690    -0.45200
C1201       C  0.42186577  0.16784497  0.12321706    -0.04500
C1202       C  0.43079621  0.17701415  0.09561238    -0.21900
H1203       H  0.45859819  0.17532029  0.04070166     0.19900
H1204       H  0.44579987  0.10714897  0.10527807     0.18700
H1205       H  0.48037064  0.09079694  0.06435859     0.15000
H1206       H  0.43194247  0.19418219  0.08971198     0.14900
H1207       H  0.48927583  0.14980155  0.01106188     0.33000
H1208       H  0.42157312  0.13536064  0.14281544     0.35800
C1209       C  0.53648242  0.99628601  0.96267299     0.21400
C1210       C  0.52412727  0.98060719  0.94627901    -0.38500
C1211       C  0.52483679  0.95943749  0.95894619     0.20400
C1212       C  0.53696277  0.95430012  0.98584085     0.23000
C1213       C  0.54932102  0.96996158  0.00221153    -0.39000
C1214       C  0.54857991  0.99113304  0.98958961     0.21800
N1215       N  0.53742402  0.01778866  0.95665866    -0.32300
C1216       C  0.55002499  0.02639933  0.98006621    -0.09800
C1217       C  0.55746245  0.01026505  0.00090365    -0.28600
N1218       N  0.53482057  0.93309718  0.99320746    -0.45200
C1219       C  0.52127001  0.92467462  0.97084435    -0.04500
C1220       C  0.51464443  0.94058053  0.94906428    -0.21900
H1221       H  0.51440418  0.98466944  0.92552149     0.19900
H1222       H  0.55852728  0.96602737  0.02351912     0.18700
H1223       H  0.56703164  0.01242308  0.02240750     0.15000
H1224       H  0.50401202  0.93855603  0.92862996     0.14900
H1225       H  0.52910704  0.02624119  0.93868805     0.33000
H1226       H  0.54226691  0.92481000  0.01214387     0.35800
C1227       C  0.94301713  0.14337886  0.08197182     0.21400
C1228       C  0.92668556  0.14269320  0.10583619    -0.38500
C1229       C  0.92486134  0.16139564  0.12525357     0.20400
C1230       C  0.93812367  0.17945721  0.12092258     0.23000
C1231       C  0.95438826  0.18015557  0.09706942    -0.39000
C1232       C  0.95639406  0.16139218  0.07796271     0.21800
N1233       N  0.94815318  0.12775049  0.06050232    -0.32300
C1234       C  0.96498547  0.13582637  0.04283932    -0.09800
C1235       C  0.97060136  0.15675598  0.05309664    -0.28600
N1236       N  0.93366793  0.19486959  0.14300420    -0.45200
C1237       C  0.91759083  0.18651794  0.16183629    -0.04500
C1238       C  0.91155498  0.16570708  0.15139546    -0.21900
H1239       H  0.91636827  0.12853989  0.10929963     0.19900
H1240       H  0.96492235  0.19418248  0.09389291     0.18700
H1241       H  0.98308561  0.16733939  0.04320976     0.15000
H1242       H  0.89947788  0.15497919  0.16199052     0.14900
H1243       H  0.94051358  0.11257560  0.05779247     0.33000
H1244       H  0.94147242  0.20984916  0.14563431     0.35800
C1245       C  0.96415797  0.16352099  0.40878840     0.21400
C1246       C  0.95614111  0.18377501  0.39825119    -0.38500
C1247       C  0.94012279  0.18289306  0.37429981     0.20400
C1248       C  0.93255626  0.16330706  0.36203570     0.23000
C1249       C  0.94040791  0.14311339  0.37277424    -0.39000
C1250       C  0.95645982  0.14398490  0.39652902     0.21800
N1251       N  0.98170883  0.16000951  0.42739546    -0.32300
C1252       C  0.98527871  0.13815801  0.42658452    -0.09800
C1253       C  0.96962517  0.12759650  0.40810968    -0.28600
N1254       N  0.91946425  0.16676061  0.33682025    -0.45200
C1255       C  0.91891093  0.18866350  0.33262736    -0.04500
C1256       C  0.93133723  0.19933582  0.35581289    -0.21900
H1257       H  0.96293295  0.19907377  0.40650742     0.19900
H1258       H  0.93543867  0.12787091  0.36190219     0.18700
H1259       H  0.96939150  0.11055415  0.40121039     0.15000
H1260       H  0.93481293  0.21662432  0.35739182     0.14900
H1261       H  0.99175601  0.17188232  0.43764727     0.33000
H1262       H  0.91262094  0.15489570  0.32199482     0.35800
C1263       C  0.59247904  0.29191363  0.32862095     0.21400
C1264       C  0.57433331  0.29196007  0.34951870    -0.38500
C1265       C  0.57425393  0.30832285  0.37315437     0.20400
C1266       C  0.59100346  0.32341406  0.37565617     0.23000
C1267       C  0.60909414  0.32336516  0.35478676    -0.39000
C1268       C  0.60918262  0.30703053  0.33125076     0.21800
N1269       N  0.59649051  0.27802877  0.30426611    -0.32300
C1270       C  0.61592535  0.28435708  0.29140899    -0.09800
C1271       C  0.62433418  0.30239129  0.30759423    -0.28600
N1272       N  0.58729734  0.33710839  0.40020441    -0.45200
C1273       C  0.56807073  0.33082329  0.41359371    -0.04500
C1274       C  0.55935428  0.31290017  0.39733379    -0.21900
H1275       H  0.56129521  0.28009818  0.34759052     0.19900
H1276       H  0.62220115  0.33514229  0.35683701     0.18700
H1277       H  0.63947421  0.31094520  0.30270098     0.15000
H1278       H  0.54431385  0.30428967  0.40266146     0.14900
H1279       H  0.58671613  0.26508111  0.29693915     0.33000
H1280       H  0.59735537  0.34998492  0.40754488     0.35800
C1281       C  0.59391474  0.13658189  0.12664999     0.21400
C1282       C  0.59058268  0.14865453  0.15484385    -0.38500
C1283       C  0.60872681  0.16045469  0.16580888     0.20400
C1284       C  0.62871985  0.16002102  0.14997292     0.23000
C1285       C  0.63208104  0.14781254  0.12196299    -0.39000
C1286       C  0.61391996  0.13620388  0.11087840     0.21800
N1287       N  0.57857778  0.12649297  0.10914968    -0.32300
C1288       C  0.58887199  0.11982832  0.08201707    -0.09800
C1289       C  0.61097471  0.12537479  0.08233871    -0.28600
N1290       N  0.64211350  0.17535987  0.16168420    -0.45200
C1291       C  0.63045732  0.18605869  0.18454028    -0.04500
C1292       C  0.60974062  0.17685370  0.18843438    -0.21900
H1293       H  0.57461101  0.15005065  0.16605140     0.19900
H1294       H  0.64725660  0.14859475  0.10849499     0.18700
H1295       H  0.62284529  0.12325808  0.06324063     0.15000
H1296       H  0.59631538  0.18312663  0.20279382     0.14900
H1297       H  0.56185660  0.12541371  0.11442288     0.33000
H1298       H  0.65727902  0.17987500  0.15219031     0.35800
C1299       C  0.74813167  0.23485686  0.24272330     0.21400
C1300       C  0.76478766  0.22650449  0.26229982    -0.38500
C1301       C  0.78609813  0.22785490  0.24971159     0.20400
C1302       C  0.79038963  0.23676977  0.21989123     0.23000
C1303       C  0.77376695  0.24506655  0.20034581    -0.39000
C1304       C  0.75253102  0.24381714  0.21297057     0.21800
N1305       N  0.72654587  0.23555176  0.24909180    -0.32300
C1306       C  0.71725152  0.24510661  0.22324699    -0.09800
C1307       C  0.73290645  0.25047701  0.20022406    -0.28600
N1308       N  0.81192556  0.23637489  0.21346751    -0.45200
C1309       C  0.82147518  0.22715816  0.23932672    -0.04500
C1310       C  0.80592909  0.22159701  0.26250345    -0.21900
H1311       H  0.76141751  0.21956681  0.28561583     0.19900
H1312       H  0.77714155  0.25208129  0.17707851     0.18700
H1313       H  0.73023995  0.25799824  0.17713496     0.15000
H1314       H  0.80877902  0.21419557  0.28562451     0.14900
H1315       H  0.71861766  0.22979877  0.26962958     0.33000
H1316       H  0.81968825  0.24218223  0.19281426     0.35800
C1317       C  0.10065092  0.64784262  0.38068507     0.21400
C1318       C  0.11956684  0.65063239  0.36203738    -0.38500
C1319       C  0.11758153  0.66504026  0.33622752     0.20400
C1320       C  0.09825396  0.67597065  0.32953124     0.23000
C1321       C  0.07923161  0.67308049  0.34815238    -0.39000
C1322       C  0.08121341  0.65857573  0.37400807     0.21800
N1323       N  0.09841468  0.63494544  0.40643156    -0.32300
C1324       C  0.07736572  0.63740157  0.41624341    -0.09800
C1325       C  0.06607863  0.65203444  0.39669753    -0.28600
N1326       N  0.10085201  0.68900055  0.30392192    -0.45200
C1327       C  0.12191606  0.68620770  0.29424300    -0.04500
C1328       C  0.13283217  0.67134229  0.31374522    -0.21900
H1329       H  0.13474245  0.64220478  0.36726161     0.19900
H1330       H  0.06406352  0.68152083  0.34294386     0.18700
H1331       H  0.04911918  0.65707481  0.39871147     0.15000
H1332       H  0.14972875  0.66605099  0.31190767     0.14900
H1333       H  0.11038619  0.62504842  0.41657042     0.33000
H1334       H  0.08900151  0.69916733  0.29359211     0.35800
C1335       C  0.93595695  0.64435927  0.60211796     0.21400
C1336       C  0.94900005  0.62574300  0.59770964    -0.38500
C1337       C  0.96078425  0.62480264  0.56891664     0.20400
C1338       C  0.95962289  0.64112174  0.54604191     0.23000
C1339       C  0.94627846  0.65961076  0.55024236    -0.39000
C1340       C  0.93458718  0.66063097  0.57920925     0.21800
N1341       N  0.92593646  0.65056025  0.62933689    -0.32300
C1342       C  0.91833547  0.67100716  0.62387991    -0.09800
C1343       C  0.92309045  0.67773174  0.59273187    -0.28600
N1344       N  0.97509728  0.63816396  0.52342899    -0.45200
C1345       C  0.98629861  0.62005592  0.53233545    -0.04500
C1346       C  0.97755854  0.61102688  0.56015482    -0.21900
H1347       H  0.95111556  0.61368522  0.61637209     0.19900
H1348       H  0.94629029  0.67297980  0.53332081     0.18700
H1349       H  0.92025380  0.69368005  0.58238805     0.15000
H1350       H  0.98413940  0.59761412  0.57399358     0.14900
H1351       H  0.92573903  0.64209558  0.65098357     0.33000
H1352       H  0.97905994  0.64886763  0.50483133     0.35800
C1353       C  0.12679968  0.66119223  0.65298288     0.21400
C1354       C  0.13042745  0.64756846  0.62638624    -0.38500
C1355       C  0.11163671  0.63828504  0.61287230     0.20400
C1356       C  0.09088716  0.64226174  0.62515717     0.23000
C1357       C  0.08727769  0.65578795  0.65172622    -0.39000
C1358       C  0.10599926  0.66514683  0.66508369     0.21800
N1359       N  0.14145332  0.67432337  0.66705763    -0.32300
C1360       C  0.12985160  0.68696502  0.68777478    -0.09800
C1361       C  0.10772457  0.68147693  0.68760180    -0.28600
N1362       N  0.07555385  0.63381011  0.60604592    -0.45200
C1363       C  0.08647149  0.62459755  0.58117629    -0.04500
C1364       C  0.10908022  0.62671342  0.58472970    -0.21900
H1365       H  0.14652345  0.64545289  0.61581961     0.19900
H1366       H  0.07094893  0.65982813  0.66010223     0.18700
H1367       H  0.09441948  0.68984918  0.69972666     0.15000
H1368       H  0.12175013  0.62199102  0.56785442     0.14900
H1369       H  0.15794150  0.67600016  0.66076941     0.33000
H1370       H  0.05859343  0.63542565  0.60873869     0.35800
C1371       C  0.95399123  0.32142448  0.56829638     0.21400
C1372       C  0.93671795  0.32212734  0.59058538    -0.38500
C1373       C  0.93534780  0.30430397  0.61156513     0.20400
C1374       C  0.94998006  0.28700316  0.61037255     0.23000
C1375       C  0.96728521  0.28631246  0.58803304    -0.39000
C1376       C  0.96871278  0.30420814  0.56709451     0.21800
N1377       N  0.95890120  0.33647644  0.54598977    -0.32300
C1378       C  0.97689596  0.32880274  0.53039514    -0.09800
C1379       C  0.98351876  0.30872334  0.54289282    -0.28600
N1380       N  0.94555253  0.27249837  0.63370212    -0.45200
C1381       C  0.92812337  0.28074233  0.65002791    -0.04500
C1382       C  0.92125288  0.30050023  0.63679597    -0.21900
H1383       H  0.92533870  0.33569570  0.59178243     0.19900
H1384       H  0.97891968  0.27295092  0.58724636     0.18700
H1385       H  0.99722343  0.29873834  0.53518612     0.15000
H1386       H  0.90813306  0.31101092  0.64517196     0.14900
H1387       H  0.95048417  0.35096421  0.54153441     0.33000
H1388       H  0.95433591  0.25824064  0.63891558     0.35800
C1389       C  0.93808983  0.30847792  0.28357651     0.21400
C1390       C  0.95832756  0.31758833  0.29172567    -0.38500
C1391       C  0.95838737  0.33074769  0.31912899     0.20400
C1392       C  0.93963441  0.33479077  0.33701975     0.23000
C1393       C  0.91926843  0.32601178  0.32852093    -0.39000
C1394       C  0.91924115  0.31265683  0.30120399     0.21800
N1395       N  0.93483880  0.29203086  0.26288812    -0.32300
C1396       C  0.91393216  0.28543178  0.26767467    -0.09800
C1397       C  0.90349133  0.29829248  0.29076709    -0.28600
N1398       N  0.94470706  0.34453980  0.36485699    -0.45200
C1399       C  0.96683339  0.34626392  0.36480468    -0.04500
C1400       C  0.97587572  0.33829856  0.33643893    -0.21900
H1401       H  0.97331295  0.31312484  0.27935239     0.19900
H1402       H  0.90493207  0.32783649  0.34365923     0.18700
H1403       H  0.88760257  0.29548568  0.30161108     0.15000
H1404       H  0.99307841  0.33625563  0.33071569     0.14900
H1405       H  0.94681586  0.28418237  0.24906432     0.33000
H1406       H  0.93404621  0.34793679  0.38384346     0.35800
C1407       C  0.09594719  0.32127429  0.39645764     0.21400
C1408       C  0.10771828  0.30232409  0.38845452    -0.38500
C1409       C  0.12026385  0.30342734  0.36030223     0.20400
C1410       C  0.12113148  0.32203095  0.34152795     0.23000
C1411       C  0.10961413  0.34109033  0.34976176    -0.39000
C1412       C  0.09700454  0.33996762  0.37787661     0.21800
N1413       N  0.08015403  0.32314086  0.41885396    -0.32300
C1414       C  0.07092858  0.34302412  0.41423598    -0.09800
C1415       C  0.08132201  0.35417211  0.38936305    -0.28600
N1416       N  0.13171847  0.31796357  0.31383937    -0.45200
C1417       C  0.13743010  0.29658395  0.31495090    -0.04500
C1418       C  0.13085002  0.28706753  0.34371278    -0.21900
H1419       H  0.10600940  0.28733030  0.40191723     0.19900
H1420       H  0.10927013  0.35523098  0.33425291     0.18700
H1421       H  0.07642732  0.36955343  0.37880566     0.15000
H1422       H  0.13202129  0.27003194  0.35038784     0.14900
H1423       H  0.07468771  0.31089938  0.43434818     0.33000
H1424       H  0.13355296  0.32860281  0.29452077     0.35800
C1425       C  0.03033659  0.46073365  0.48211996     0.21400
C1426       C  0.04257291  0.47626442  0.49888118    -0.38500
C1427       C  0.04026644  0.49784122  0.48838847     0.20400
C1428       C  0.02676389  0.50353722  0.46318279     0.23000
C1429       C  0.01448835  0.48800189  0.44642803    -0.39000
C1430       C  0.01683027  0.46640104  0.45689777     0.21800
N1431       N  0.02998104  0.43910378  0.48707091    -0.32300
C1432       C  0.01615440  0.43098053  0.46485028    -0.09800
C1433       C  0.00760386  0.44746339  0.44558703    -0.28600
N1434       N  0.02730078  0.52516618  0.45814069    -0.45200
C1435       C  0.04127145  0.53321263  0.48027254    -0.04500
C1436       C  0.04967509  0.51670578  0.49958237    -0.21900
H1437       H  0.05314819  0.47186496  0.51857508     0.19900
H1438       H  0.00395416  0.49239380  0.42668336     0.18700
H1439       H  0.99650842  0.44574662  0.42562331     0.15000
H1440       H  0.06081393  0.51835958  0.51950506     0.14900
H1441       H  0.03887335  0.43036565  0.50414123     0.33000
H1442       H  0.01846207  0.53394592  0.44106837     0.35800
C1443       C  0.59438850  0.65610883  0.08859410     0.21400
C1444       C  0.59803829  0.67475890  0.10735991    -0.38500
C1445       C  0.61298561  0.67228395  0.13248389     0.20400
C1446       C  0.62362656  0.65274261  0.13846474     0.23000
C1447       C  0.61991370  0.63399400  0.11974597    -0.39000
C1448       C  0.60484529  0.63645836  0.09460635     0.21800
N1449       N  0.58101490  0.65434532  0.06327220    -0.32300
C1450       C  0.58280293  0.63341629  0.05299572    -0.09800
C1451       C  0.59754096  0.62171893  0.07196409    -0.28600
N1452       N  0.63694413  0.65469921  0.16394644    -0.45200
C1453       C  0.63457727  0.67562788  0.17429749    -0.04500
C1454       C  0.61980220  0.68705386  0.15524006    -0.21900
H1455       H  0.58978023  0.69009313  0.10277157     0.19900
H1456       H  0.62810102  0.61863533  0.12442644     0.18700
H1457       H  0.60239909  0.60479827  0.06933466     0.15000
H1458       H  0.61456636  0.70385934  0.15790956     0.14900
H1459       H  0.57128988  0.66672272  0.05343063     0.33000
H1460       H  0.64668715  0.64254496  0.17394611     0.35800
C1461       C  0.47609038  0.67029411  0.90942580     0.21400
C1462       C  0.47199784  0.68953596  0.89232850    -0.38500
C1463       C  0.45438017  0.68880754  0.87103873     0.20400
C1464       C  0.44156151  0.67038429  0.86720041     0.23000
C1465       C  0.44562719  0.65108106  0.88441338    -0.39000
C1466       C  0.46344617  0.65174265  0.90560257     0.21800
N1467       N  0.49353776  0.66610399  0.92786370    -0.32300
C1468       C  0.49229520  0.64467347  0.93561141    -0.09800
C1469       C  0.47354797  0.63519745  0.92255127    -0.28600
N1470       N  0.42707707  0.67333224  0.84337557    -0.45200
C1471       C  0.43102515  0.69362789  0.83177087    -0.04500
C1472       C  0.44777928  0.70382188  0.84860873    -0.21900
H1473       H  0.48252162  0.70367271  0.89418405     0.19900
H1474       H  0.43634332  0.63631163  0.88037044     0.18700
H1475       H  0.46905707  0.61811478  0.92288458     0.15000
H1476       H  0.45491610  0.71967399  0.84396574     0.14900
H1477       H  0.50644663  0.67675681  0.93273598     0.33000
H1478       H  0.41604116  0.66186135  0.83443916     0.35800
C1479       C  0.60068520  0.63030187  0.83724882     0.21400
C1480       C  0.59944311  0.63886313  0.80617983    -0.38500
C1481       C  0.61764294  0.65094002  0.79591802     0.20400
C1482       C  0.63581332  0.65403578  0.81512017     0.23000
C1483       C  0.63718169  0.64519812  0.84597447    -0.39000
C1484       C  0.61892649  0.63330993  0.85631277     0.21800
N1485       N  0.58419685  0.62160903  0.85434661    -0.32300
C1486       C  0.59194268  0.61930531  0.88449441    -0.09800
C1487       C  0.61364907  0.62606382  0.88653880    -0.28600
N1488       N  0.64889118  0.66945293  0.80273233    -0.45200
C1489       C  0.63877032  0.67663517  0.77593916    -0.04500
C1490       C  0.61954291  0.66505021  0.77038022    -0.21900
H1491       H  0.58462793  0.63783249  0.79213938     0.19900
H1492       H  0.65065336  0.64892423  0.86179996     0.18700
H1493       H  0.62345592  0.62756902  0.90793489     0.15000
H1494       H  0.60716019  0.66859092  0.75266168     0.14900
H1495       H  0.56813765  0.61909918  0.84663981     0.33000
H1496       H  0.66244359  0.67646748  0.81388097     0.35800
C1497       C  0.46433781  0.30710657  0.87957261     0.21400
C1498       C  0.46536031  0.28882970  0.85926574    -0.38500
C1499       C  0.44734550  0.28591873  0.83897048     0.20400
C1500       C  0.42967546  0.30013834  0.83895112     0.23000
C1501       C  0.42854181  0.31827600  0.85947630    -0.39000
C1502       C  0.44656735  0.32120524  0.87971562     0.21800
N1503       N  0.47955922  0.31375989  0.90054430    -0.32300
C1504       C  0.47143405  0.33219397  0.91419153    -0.09800
C1505       C  0.45084752  0.33732796  0.90186594    -0.28600
N1506       N  0.41540252  0.29473792  0.81588424    -0.45200
C1507       C  0.42407118  0.27697196  0.80104907    -0.04500
C1508       C  0.44387946  0.27084090  0.81496991    -0.21900
H1509       H  0.47937127  0.27795952  0.85879973     0.19900
H1510       H  0.41485900  0.32955536  0.85920088     0.18700
H1511       H  0.44038224  0.35093753  0.90839032     0.15000
H1512       H  0.45485269  0.25790673  0.80735828     0.14900
H1513       H  0.49451342  0.30610073  0.90550608     0.33000
H1514       H  0.40118025  0.30312899  0.80975506     0.35800
C1515       C  0.45556788  0.32564225  0.11984370     0.21400
C1516       C  0.45858645  0.31273839  0.14719318    -0.38500
C1517       C  0.44084446  0.29955952  0.15607303     0.20400
C1518       C  0.42141617  0.29940229  0.13913255     0.23000
C1519       C  0.41829921  0.31248472  0.11188018    -0.39000
C1520       C  0.43618305  0.32550653  0.10277455     0.21800
N1521       N  0.47108385  0.33682303  0.10401956    -0.32300
C1522       C  0.46175887  0.34357548  0.07639139    -0.09800
C1523       C  0.43984408  0.33715897  0.07495027    -0.28600
N1524       N  0.40835663  0.28323060  0.14957180    -0.45200
C1525       C  0.41967768  0.27282130  0.17294124    -0.04500
C1526       C  0.43986180  0.28278589  0.17803828    -0.21900
H1527       H  0.47419432  0.31184060  0.15930743     0.19900
H1528       H  0.40363799  0.31140405  0.09751013     0.18700
H1529       H  0.42878079  0.33894345  0.05495712     0.15000
H1530       H  0.45290920  0.27719353  0.19346658     0.14900
H1531       H  0.48756595  0.33815265  0.11035903     0.33000
H1532       H  0.39348315  0.27844518  0.13960538     0.35800
C1533       C  0.58585871  0.31235454  0.04252177     0.21400
C1534       C  0.59393568  0.29219461  0.05314124    -0.38500
C1535       C  0.60870451  0.29307150  0.07865763     0.20400
C1536       C  0.61527587  0.31258691  0.09232826     0.23000
C1537       C  0.60752069  0.33279985  0.08128923    -0.39000
C1538       C  0.59246487  0.33190969  0.05605074     0.21800
N1539       N  0.56875808  0.31553272  0.02294301    -0.32300
C1540       C  0.56419873  0.33717019  0.02438268    -0.09800
C1541       C  0.57892569  0.34799895  0.04423894    -0.28600
N1542       N  0.62658426  0.30889260  0.11935147    -0.45200
C1543       C  0.62680013  0.28691476  0.12311374    -0.04500
C1544       C  0.61620359  0.27650388  0.09792138    -0.21900
H1545       H  0.58773275  0.27686475  0.04404562     0.19900
H1546       H  0.61147718  0.34796731  0.09323622     0.18700
H1547       H  0.57824696  0.36489886  0.05180947     0.15000
H1548       H  0.61271319  0.25925554  0.09560161     0.14900
H1549       H  0.55948081  0.30345040  0.01172984     0.33000
H1550       H  0.63216378  0.32057657  0.13553357     0.35800
C1551       C  0.53364024  0.50477882  0.96367716     0.21400
C1552       C  0.53833779  0.48392929  0.95126803    -0.38500
C1553       C  0.52659536  0.46657790  0.96498784     0.20400
C1554       C  0.51133020  0.46981785  0.98915888     0.23000
C1555       C  0.50658579  0.49066439  0.00146778    -0.39000
C1556       C  0.51837185  0.50798799  0.98784722     0.21800
N1557       N  0.54289964  0.52382067  0.95521998    -0.32300
C1558       C  0.53354591  0.53925945  0.97421721    -0.09800
C1559       C  0.51810823  0.53002540  0.99484457    -0.28600
N1560       N  0.50281951  0.45069056  0.99876849    -0.45200
C1561       C  0.51266236  0.43509984  0.98061623    -0.04500
C1562       C  0.52760828  0.44437444  0.95919628    -0.21900
H1563       H  0.55043066  0.48138151  0.93258752     0.19900
H1564       H  0.49478381  0.49317092  0.02055195     0.18700
H1565       H  0.50814469  0.53829363  0.01263408     0.15000
H1566       H  0.53809275  0.43598136  0.94218612     0.14900
H1567       H  0.55496468  0.52615710  0.93775603     0.33000
H1568       H  0.49121633  0.44834902  0.01690081     0.35800
loop_ 
_geom_bond_atom_site_label_1 
_geom_bond_atom_site_label_2 
_geom_bond_distance 
_geom_bond_site_symmetry_2 
_ccdc_geom_bond_type 
O1            C4   1.266   1_556  A
O1           Cd6   2.478       .  S
C2           O11   1.265       .  A
C2            O7   1.265       .  A
C2         C1504   1.474       .  S
O3            C9   1.262       .  A
O3           Cd6   2.470   1_554  S
C4           O12   1.264       .  A
C4         C1540   1.470       .  S
C5           O10   1.265   1_556  A
C5            O8   1.266       .  A
C5         C1561   1.476       .  S
Cd6          O13   2.500   1_556  S
Cd6          O12   2.461   1_556  S
Cd6          O11   2.474       .  S
Cd6           O7   2.484       .  S
Cd6          O10   2.473   1_556  S
Cd6           O8   2.495       .  S
C9           O13   1.263       .  A
C9         C1522   1.473       .  S
O14          C17   1.264       .  A
O14         Cd19   2.496   1_554  S
C15          O24   1.265       .  A
C15          O20   1.264       .  A
C15        C1468   1.473       .  S
O16          C22   1.261       .  A
O16         Cd19   2.464       .  S
C17          O25   1.264       .  A
C17        C1450   1.479       .  S
C18          O23   1.265       .  A
C18          O21   1.268       .  A
C18        C1558   1.474       .  S
Cd19         O26   2.473       .  S
Cd19         O25   2.500   1_556  S
Cd19         O24   2.493       .  S
Cd19         O20   2.463       .  S
Cd19         O23   2.456       .  S
Cd19         O21   2.484       .  S
C22          O26   1.264       .  A
C22        C1486   1.467       .  S
O27          C30   1.266   1_455  A
O27         Cd32   2.492       .  S
C28          O37   1.264       .  A
C28          O33   1.268       .  A
C28        C1414   1.470       .  S
O29          C35   1.262       .  A
O29         Cd32   2.492   1_655  S
C30          O38   1.264       .  A
C30        C1378   1.475       .  S
C31          O36   1.264   1_455  A
C31          O34   1.265       .  A
C31        C1432   1.463       .  S
Cd32         O39   2.450       .  S
Cd32         O38   2.474   1_455  S
Cd32         O37   2.440       .  S
Cd32         O33   2.489       .  S
Cd32         O36   2.440   1_455  S
Cd32         O34   2.457       .  S
C35          O39   1.260   1_655  A
C35        C1399   1.466       .  S
O40          C43   1.268       .  A
O40         Cd45   2.469       .  S
C41          O50   1.264       .  A
C41          O46   1.265       .  A
C41        C1324   1.468       .  S
O42          C48   1.265       .  A
O42         Cd45   2.507       .  S
C43          O51   1.265       .  A
C43        C1345   1.465   1_455  S
C44          O49   1.263       .  A
C44          O47   1.263       .  A
C44        C1435   1.463       .  S
Cd45         O52   2.426       .  S
Cd45         O51   2.418       .  S
Cd45         O50   2.454       .  S
Cd45         O46   2.475       .  S
Cd45         O49   2.453       .  S
Cd45         O47   2.460       .  S
C48          O52   1.260       .  A
C48        C1363   1.466       .  S
O53          C56   1.264       .  A
O53         Cd58   2.474       .  S
C54          O63   1.263       .  A
C54          O59   1.268       .  A
C54        C1291   1.469       .  S
O55          C61   1.264       .  A
O55         Cd58   2.500       .  S
C56          O64   1.265       .  A
C56        C1270   1.474       .  S
C57          O62   1.265       .  A
C57          O60   1.265       .  A
C57        C1306   1.465       .  S
Cd58         O65   2.452       .  S
Cd58         O64   2.484       .  S
Cd58         O63   2.433       .  S
Cd58         O59   2.490       .  S
Cd58         O62   2.445       .  S
Cd58         O60   2.462       .  S
C61          O65   1.260       .  A
C61        C1543   1.469       .  S
O66          C69   1.264       .  A
O66         Cd71   2.493       .  S
C67          O76   1.265       .  A
C67          O72   1.267       .  A
C67        C1396   1.467       .  S
O68          C74   1.265       .  A
O68         Cd71   2.474       .  S
C69          O77   1.265       .  A
C69        C1237   1.477       .  S
C70          O75   1.260       .  A
C70          O73   1.264       .  A
C70        C1255   1.469       .  S
Cd71         O78   2.448       .  S
Cd71         O77   2.490       .  S
Cd71         O76   2.449       .  S
Cd71         O72   2.461       .  S
Cd71         O75   2.473       .  S
Cd71         O73   2.489       .  S
C74          O78   1.264       .  A
C74        C1309   1.467       .  S
O79          C82   1.267   1_556  A
O79         Cd84   2.455       .  S
C80          O89   1.267       .  A
C80          O85   1.264       .  A
C80        C1180   1.473       .  S
O81          C87   1.261       .  A
O81         Cd84   2.457   1_554  S
C82          O90   1.265       .  A
C82        C1198   1.467       .  S
C83          O88   1.263   1_556  A
C83          O86   1.264       .  A
C83        C1216   1.467       .  S
Cd84         O91   2.474   1_556  S
Cd84         O90   2.457   1_556  S
Cd84         O89   2.486       .  S
Cd84         O85   2.462       .  S
Cd84         O88   2.466   1_556  S
Cd84         O86   2.467       .  S
C87          O91   1.264       .  A
C87        C1288   1.466       .  S
O92          C95   1.265       .  A
O92         Cd97   2.483       .  S
C93         O102   1.263   1_554  A
C93          O98   1.264       .  A
C93        C1126   1.469       .  S
O94         C100   1.262       .  A
O94         Cd97   2.466       .  S
C95         O103   1.263       .  A
C95        C1144   1.470       .  S
C96         O101   1.264       .  A
C96          O99   1.267       .  A
C96        C1162   1.465       .  S
Cd97        O104   2.462       .  S
Cd97        O103   2.459       .  S
Cd97        O102   2.461       .  S
Cd97         O98   2.484   1_556  S
Cd97        O101   2.436       .  S
Cd97         O99   2.468       .  S
C100        O104   1.263       .  A
C100       C1219   1.465       .  S
O105        C108   1.264       .  A
O105       Cd110   2.465       .  S
C106        O115   1.265       .  A
C106        O111   1.266       .  A
C106       C1090   1.468       .  S
O107        C113   1.263       .  A
O107       Cd110   2.477       .  S
C108        O116   1.265       .  A
C108       C1072   1.471       .  S
C109        O114   1.264       .  A
C109        O112   1.264       .  A
C109       C1108   1.464       .  S
Cd110       O117   2.474       .  S
Cd110       O116   2.478       .  S
Cd110       O115   2.462       .  S
Cd110       O111   2.454       .  S
Cd110       O114   2.458       .  S
Cd110       O112   2.455       .  S
C113        O117   1.262       .  A
C113       C1342   1.468       .  S
O118        C121   1.266       .  A
O118       Cd123   2.473       .  S
C119        O128   1.264       .  A
C119        O124   1.269       .  A
C119       C1489   1.466       .  S
O120        C126   1.266       .  A
O120       Cd123   2.438       .  S
C121        O129   1.264       .  A
C121       C1054   1.468       .  S
C122        O127   1.263       .  A
C122        O125   1.267       .  A
C122       C1147   1.464       .  S
Cd123       O130   2.435       .  S
Cd123       O129   2.449       .  S
Cd123       O128   2.424       .  S
Cd123       O124   2.471       .  S
Cd123       O127   2.409       .  S
Cd123       O125   2.490       .  S
C126        O130   1.265       .  A
C126       C1111   1.460       .  S
O131        C134   1.265       .  A
O131       Cd136   2.465       .  S
C132        O141   1.266       .  A
C132        O137   1.265       .  A
C132       C1252   1.465   1_455  S
O133        C139   1.261       .  A
O133       Cd136   2.460       .  S
C134        O142   1.263       .  A
C134       C1000   1.467       .  S
C135        O140   1.265       .  A
C135        O138   1.264       .  A
C135       C1039   1.472       .  S
Cd136       O143   2.499       .  S
Cd136       O142   2.458       .  S
Cd136       O141   2.442       .  S
Cd136       O137   2.458       .  S
Cd136       O140   2.473       .  S
Cd136       O138   2.477       .  S
C139        O143   1.265       .  A
C139       C1018   1.472       .  S
O144        C147   1.265   1_455  A
O144       Cd149   2.492       .  S
C145        O154   1.266       .  A
C145        O150   1.267       .  A
C145        C982   1.470       .  S
O146        C152   1.263       .  A
O146       Cd149   2.460       .  S
C147        O155   1.263       .  A
C147        C964   1.473       .  S
C148        O153   1.260   1_655  A
C148        O151   1.264       .  A
C148       C1093   1.468       .  S
Cd149       O156   2.502       .  S
Cd149       O155   2.474   1_455  S
Cd149       O154   2.453       .  S
Cd149       O150   2.474       .  S
Cd149       O153   2.462       .  S
Cd149       O151   2.489   1_455  S
C152        O156   1.266       .  A
C152       C1036   1.474       .  S
O157        C160   1.265       .  A
O157       Cd162   2.472       .  S
C158        O167   1.265       .  A
C158        O163   1.269       .  A
C158       C1360   1.466       .  S
O159        C165   1.259       .  A
O159       Cd162   2.447       .  S
C160        O168   1.262       .  A
C160        C931   1.467       .  S
C161        O166   1.265       .  A
C161        O164   1.265       .  A
C161        C946   1.465       .  S
Cd162       O169   2.511       .  S
Cd162       O168   2.456       .  S
Cd162       O167   2.432       .  S
Cd162       O163   2.464       .  S
Cd162       O166   2.433       .  S
Cd162       O164   2.475       .  S
C165        O169   1.264       .  A
C165        C985   1.469       .  S
O170        C173   1.268       .  A
O170       Cd175   2.471       .  S
C171        O180   1.263       .  A
C171        O176   1.265       .  A
C171        C910   1.472       .  S
O172        C178   1.262       .  A
O172       Cd175   2.450       .  S
C173        O181   1.265       .  A
C173       C1165   1.467       .  S
C174        O179   1.264       .  A
C174        O177   1.265       .  A
C174        C949   1.468       .  S
Cd175       O182   2.500       .  S
Cd175       O181   2.437       .  S
Cd175       O180   2.464       .  S
Cd175       O176   2.493       .  S
Cd175       O179   2.470       .  S
Cd175       O177   2.459       .  S
C178        O182   1.265       .  A
C178       C1471   1.471       .  S
O183        C186   1.268       .  A
O183       Cd188   2.500       .  S
C184        O193   1.264       .  A
C184        O189   1.267       .  A
C184        C874   1.474       .  S
O185        C191   1.259       .  A
O185       Cd188   2.454       .  S
C186        O194   1.264       .  A
C186       C1021   1.474       .  S
C187        O192   1.265       .  A
C187        O190   1.266       .  A
C187        C892   1.471       .  S
Cd188       O195   2.500       .  S
Cd188       O194   2.444       .  S
Cd188       O193   2.460       .  S
Cd188       O189   2.500       .  S
Cd188       O192   2.474       .  S
Cd188       O190   2.468       .  S
C191        O195   1.263       .  A
C191       C1417   1.468       .  S
O196        C199   1.266       .  A
O196       Cd201   2.482       .  S
C197        O206   1.263       .  A
C197        O202   1.269       .  A
C197       C1525   1.474       .  S
O198        C204   1.264       .  A
O198       Cd201   2.507       .  S
C199        O207   1.264       .  A
C199        C856   1.477       .  S
C200        O205   1.265       .  A
C200        O203   1.266       .  A
C200        C895   1.469       .  S
Cd201       O208   2.450       .  S
Cd201       O207   2.498       .  S
Cd201       O206   2.458       .  S
Cd201       O202   2.497       .  S
Cd201       O205   2.448       .  S
Cd201       O203   2.469       .  S
C204        O208   1.260       .  A
C204       C1201   1.469       .  S
O209        C212   1.265       .  A
O209       Cd214   2.486       .  S
C210        O219   1.265       .  A
C210        O215   1.268       .  A
C210        C802   1.466       .  S
O211        C217   1.266       .  A
O211       Cd214   2.459       .  S
C212        O220   1.264       .  A
C212        C967   1.472       .  S
C213        O218   1.260       .  A
C213        O216   1.266       .  A
C213        C823   1.466       .  S
Cd214       O221   2.458       .  S
Cd214       O220   2.466       .  S
Cd214       O219   2.443       .  S
Cd214       O215   2.458       .  S
Cd214       O218   2.427       .  S
Cd214       O216   2.505       .  S
C217        O221   1.265       .  A
C217        C838   1.467       .  S
O222        C225   1.267       .  A
O222       Cd227   2.476       .  S
C223        O232   1.264       .  A
C223        O228   1.268       .  A
C223        C769   1.471       .  S
O224        C230   1.263       .  A
O224       Cd227   2.479       .  S
C225        O233   1.265       .  A
C225       C1453   1.477       .  S
C226        O231   1.265       .  A
C226        O229   1.263       .  A
C226        C841   1.464       .  S
Cd227       O234   2.472       .  S
Cd227       O233   2.486       .  S
Cd227       O232   2.454       .  S
Cd227       O228   2.482       .  S
Cd227       O231   2.461       .  S
Cd227       O229   2.452       .  S
C230        O234   1.260       .  A
C230        C784   1.469       .  S
O235        C238   1.265       .  A
O235       Cd240   2.466   1_455  S
C236        O245   1.265       .  A
C236        O241   1.265       .  A
C236       C1234   1.476       .  S
O237        C243   1.261       .  A
O237       Cd240   2.445       .  S
C238        O246   1.265       .  A
C238        C733   1.470       .  S
C239        O244   1.265   1_455  A
C239        O242   1.266       .  A
C239        C748   1.470       .  S
Cd240       O247   2.492       .  S
Cd240       O246   2.471   1_655  S
Cd240       O245   2.478   1_556  S
Cd240       O241   2.493   1_556  S
Cd240       O244   2.465       .  S
Cd240       O242   2.474   1_655  S
C243        O247   1.265       .  A
C243        C712   1.469       .  S
O248        C251   1.262       .  A
O248       Cd253   2.447   1_556  S
C249        O258   1.266       .  A
C249        O254   1.264       .  A
C249        C820   1.467   1_455  S
O250        C256   1.263       .  A
O250       Cd253   2.478       .  S
C251        O259   1.265       .  A
C251        C928   1.467       .  S
C252        O257   1.264   1_556  A
C252        O255   1.265       .  A
C252        C751   1.468       .  S
Cd253       O260   2.454       .  S
Cd253       O259   2.480   1_554  S
Cd253       O258   2.481       .  S
Cd253       O254   2.438       .  S
Cd253       O257   2.448       .  S
Cd253       O255   2.475   1_554  S
C256        O260   1.262       .  A
C256        C694   1.466       .  S
O261        C264   1.264       .  A
O261       Cd266   2.434       .  S
C262        O271   1.264       .  A
C262        O267   1.264       .  A
C262        C877   1.473   1_556  S
O263        C269   1.263       .  A
O263       Cd266   2.471       .  S
C264        O272   1.266       .  A
C264        C640   1.470       .  S
C265        O270   1.264       .  A
C265        O268   1.264       .  A
C265        C676   1.467       .  S
Cd266       O273   2.482       .  S
Cd266       O272   2.497       .  S
Cd266       O271   2.481       .  S
Cd266       O267   2.475       .  S
Cd266       O270   2.465       .  S
Cd266       O268   2.464       .  S
C269        O273   1.264       .  A
C269        C661   1.471       .  S
O274        C277   1.266       .  A
O274       Cd279   2.469       .  S
C275        O284   1.263       .  A
C275        O280   1.265   1_655  A
C275       C1075   1.472       .  S
O276        C282   1.264       .  A
O276       Cd279   2.459       .  S
C277        O285   1.265       .  A
C277        C622   1.473   1_556  S
C278        O283   1.261   1_655  A
C278        O281   1.262       .  A
C278        C805   1.467       .  S
Cd279       O286   2.470       .  S
Cd279       O285   2.474       .  S
Cd279       O284   2.467   1_455  S
Cd279       O280   2.488       .  S
Cd279       O283   2.468   1_556  S
Cd279       O281   2.475   1_456  S
C282        O286   1.266       .  A
C282        C679   1.469       .  S
O287        C290   1.268       .  A
O287       Cd292   2.461       .  S
C288        O297   1.263       .  A
C288        O293   1.263       .  A
C288       C1327   1.471       .  S
O289        C295   1.259       .  A
O289       Cd292   2.437       .  S
C290        O298   1.264       .  A
C290        C697   1.465       .  S
C291        O296   1.267       .  A
C291        O294   1.266       .  A
C291        C604   1.468       .  S
Cd292       O299   2.520       .  S
Cd292       O298   2.430       .  S
Cd292       O297   2.472       .  S
Cd292       O293   2.489       .  S
Cd292       O296   2.460       .  S
Cd292       O294   2.455       .  S
C295        O299   1.266       .  A
C295        C625   1.470       .  S
O300        C303   1.264       .  A
O300       Cd305   2.472       .  S
C301        O310   1.261       .  A
C301        O306   1.265       .  A
C301        C571   1.463       .  S
O302        C308   1.267       .  A
O302       Cd305   2.475       .  S
C303        O311   1.264       .  A
C303       C1129   1.467       .  S
C304        O309   1.266       .  A
C304        O307   1.263       .  A
C304        C607   1.465       .  S
Cd305       O312   2.430       .  S
Cd305       O311   2.455       .  S
Cd305       O310   2.432       .  S
Cd305       O306   2.478       .  S
Cd305       O309   2.475       .  S
Cd305       O307   2.427       .  S
C308        O312   1.262       .  A
C308        C589   1.465       .  S
O313        C316   1.267       .  A
O313       Cd318   2.484       .  S
C314        O323   1.263       .  A
C314        O319   1.270       .  A
C314        C517   1.470       .  S
O315        C321   1.268       .  A
O315       Cd318   2.493       .  S
C316        O324   1.264       .  A
C316        C859   1.474       .  S
C317        O322   1.267       .  A
C317        O320   1.267       .  A
C317        C550   1.470       .  S
Cd318       O325   2.416       .  S
Cd318       O324   2.469       .  S
Cd318       O323   2.419       .  S
Cd318       O319   2.496       .  S
Cd318       O322   2.459       .  S
Cd318       O320   2.460       .  S
C321        O325   1.261       .  A
C321        C532   1.465       .  S
O326        C329   1.266       .  A
O326       Cd331   2.490       .  S
C327        O336   1.264       .  A
C327        O332   1.265       .  A
C327       C1057   1.468       .  S
O328        C334   1.261       .  A
O328       Cd331   2.455       .  S
C329        O337   1.263       .  A
C329        C586   1.468       .  S
C330        O335   1.266       .  A
C330        O333   1.265       .  A
C330        C553   1.470       .  S
Cd331       O338   2.502       .  S
Cd331       O337   2.442       .  S
Cd331       O336   2.459       .  S
Cd331       O332   2.468       .  S
Cd331       O335   2.475       .  S
Cd331       O333   2.455       .  S
C334        O338   1.264       .  A
C334        C766   1.471       .  S
O339        C342   1.263       .  A
O339       Cd344   2.462       .  S
C340        O349   1.265       .  A
C340        O345   1.269       .  A
C340        C658   1.470       .  S
O341        C347   1.266       .  A
O341       Cd344   2.507       .  S
C342        O350   1.265       .  A
C342       C1003   1.470       .  S
C343        O348   1.268       .  A
C343        O346   1.265       .  A
C343        C496   1.476       .  S
Cd344       O351   2.448       .  S
Cd344       O350   2.490       .  S
Cd344       O349   2.424       .  S
Cd344       O345   2.485       .  S
Cd344       O348   2.501       .  S
Cd344       O346   2.457       .  S
C347        O351   1.260       .  A
C347        C730   1.471       .  S
O352        C355   1.264       .  A
O352       Cd357   2.432       .  S
C353        O362   1.264       .  A
C353        O358   1.265       .  A
C353       C1507   1.471       .  S
O354        C360   1.263       .  A
O354       Cd357   2.450       .  S
C355        O363   1.266       .  A
C355        C535   1.466       .  S
C356        O361   1.264       .  A
C356        O359   1.266       .  A
C356        C499   1.472       .  S
Cd357       O364   2.486       .  S
Cd357       O363   2.481       .  S
Cd357       O362   2.463       .  S
Cd357       O358   2.481       .  S
Cd357       O361   2.445       .  S
Cd357       O359   2.497       .  S
C360        O364   1.265       .  A
C360        C478   1.469       .  S
O365        C368   1.266       .  A
O365       Cd370   2.508       .  S
C366        O375   1.265       .  A
C366        O371   1.264       .  A
C366        C913   1.471       .  S
O367        C373   1.261       .  A
O367       Cd370   2.434       .  S
C368        O376   1.261       .  A
C368        C787   1.472       .  S
C369        O374   1.267       .  A
C369        O372   1.265       .  A
C369        C460   1.468       .  S
Cd370       O377   2.493       .  S
Cd370       O376   2.446       .  S
Cd370       O375   2.490       .  S
Cd370       O371   2.453       .  S
Cd370       O374   2.482       .  S
Cd370       O372   2.428       .  S
C373        O377   1.264       .  A
C373        C568   1.465       .  S
O378        C381   1.264       .  A
O378       Cd383   2.466       .  S
C379        O388   1.264       .  A
C379        O384   1.268       .  A
C379        C481   1.469       .  S
O380        C386   1.261       .  A
O380       Cd383   2.457       .  S
C381        O389   1.266       .  A
C381       C1273   1.476       .  S
C382        O387   1.266       .  A
C382        O385   1.265       .  A
C382        C463   1.473       .  S
Cd383       O390   2.536       .  S
Cd383       O389   2.506       .  S
Cd383       O388   2.435       .  S
Cd383       O384   2.486       .  S
Cd383       O387   2.464       .  S
Cd383       O385   2.490       .  S
C386        O390   1.266       .  A
C386        C445   1.478       .  S
O391        C394   1.266       .  A
O391       Cd396   2.508       .  S
C392        O401   1.264       .  A
C392        O397   1.268       .  A
C392        C715   1.473       .  S
O393        C399   1.262       .  A
O393       Cd396   2.446       .  S
C394        O402   1.264       .  A
C394       C1381   1.476       .  S
C395        O400   1.268       .  A
C395        O398   1.266       .  A
C395        C424   1.476       .  S
Cd396       O403   2.505       .  S
Cd396       O402   2.468       .  S
Cd396       O401   2.451       .  S
Cd396       O397   2.496       .  S
Cd396       O400   2.512       .  S
Cd396       O398   2.438       .  S
C399        O403   1.266       .  A
C399        C643   1.471       .  S
O404        C407   1.265       .  A
O404       Cd409   2.481       .  S
C405        O414   1.264       .  A
C405        O410   1.263       .  A
C405       C1183   1.476       .  S
O406        C412   1.265       .  A
O406       Cd409   2.517       .  S
C407        O415   1.265       .  A
C407        C442   1.476       .  S
C408        O413   1.267       .  A
C408        O411   1.266       .  A
C408        C427   1.477       .  S
Cd409       O416   2.477       .  S
Cd409       O415   2.484       .  S
Cd409       O414   2.491       .  S
Cd409       O410   2.495       .  S
Cd409       O413   2.469       .  S
Cd409       O411   2.492       .  S
C412        O416   1.260       .  A
C412        C514   1.476       .  S
C417        C422   1.384       .  A
C417        C418   1.411       .  A
C417        N423   1.351       .  A
C418        C419   1.411       .  A
C418        H429   1.082       .  S
C419        C428   1.386       .  A
C419        C420   1.385       .  A
C420        C421   1.399       .  A
C420        N426   1.342       .  A
C421        C422   1.399       .  A
C421        H430   1.082       .  S
C422        C425   1.372       .  A
N423        C424   1.360       .  A
N423        H433   1.044       .  S
C424        C425   1.392       .  A
C425        H431   1.083       .  S
N426        C427   1.354       .  A
N426        H434   1.044       .  S
C427        C428   1.400       .  A
C428        H432   1.082       .  S
C435        C440   1.385       .  A
C435        C436   1.403       .  A
C435        N441   1.345       .  A
C436        C437   1.403       .  A
C436        H447   1.083       .  S
C437        C446   1.376       .  A
C437        C438   1.384       .  A
C438        C439   1.407       .  A
C438        N444   1.350       .  A
C439        C440   1.408       .  A
C439        H448   1.082       .  S
C440        C443   1.382       .  A
N441        C442   1.355       .  A
N441        H451   1.045       .  S
C442        C443   1.398       .  A
C443        H449   1.082       .  S
N444        C445   1.358       .  A
N444        H452   1.044       .  S
C445        C446   1.395       .  A
C446        H450   1.083       .  S
C453        C458   1.385       .  A
C453        C454   1.399       .  A
C453        N459   1.339       .  A
C454        C455   1.399       .  A
C454        H465   1.082       .  S
C455        C464   1.375       .  A
C455        C456   1.384       .  A
C456        C457   1.408       .  A
C456        N462   1.346       .  A
C457        C458   1.407       .  A
C457        H466   1.082       .  S
C458        C461   1.383       .  A
N459        C460   1.353       .  A
N459        H469   1.045       .  S
C460        C461   1.398       .  A
C461        H467   1.082       .  S
N462        C463   1.358       .  A
N462        H470   1.046       .  S
C463        C464   1.393       .  A
C464        H468   1.083       .  S
C471        C476   1.385       .  A
C471        C472   1.403       .  A
C471        N477   1.345       .  A
C472        C473   1.403       .  A
C472        H483   1.083       .  S
C473        C482   1.375       .  A
C473        C474   1.385       .  A
C474        C475   1.402       .  A
C474        N480   1.345       .  A
C475        C476   1.402       .  A
C475        H484   1.082       .  S
C476        C479   1.375       .  A
N477        C478   1.356       .  A
N477        H487   1.044       .  S
C478        C479   1.394       .  A
C479        H485   1.083       .  S
N480        C481   1.355       .  A
N480        H488   1.045       .  S
C481        C482   1.395       .  A
C482        H486   1.083       .  S
C489        C494   1.385       .  A
C489        C490   1.401       .  A
C489        N495   1.342       .  A
C490        C491   1.399       .  A
C490        H501   1.082       .  S
C491        C500   1.374       .  A
C491        C492   1.384       .  A
C492        C493   1.409       .  A
C492        N498   1.348       .  A
C493        C494   1.408       .  A
C493        H502   1.082       .  S
C494        C497   1.385       .  A
N495        C496   1.354       .  A
N495        H505   1.045       .  S
C496        C497   1.399       .  A
C497        H503   1.082       .  S
N498        C499   1.358       .  A
N498        H506   1.045       .  S
C499        C500   1.392       .  A
C500        H504   1.083       .  S
C507        C512   1.384       .  A
C507        C508   1.407       .  A
C507        N513   1.344       .  A
C508        C509   1.404       .  A
C508        H519   1.082       .  S
C509        C518   1.383       .  A
C509        C510   1.384       .  A
C510        C511   1.403       .  A
C510        N516   1.341       .  A
C511        C512   1.402       .  A
C511        H520   1.082       .  S
C512        C515   1.381       .  A
N513        C514   1.357       .  A
N513        H523   1.045       .  S
C514        C515   1.395       .  A
C515        H521   1.082       .  S
N516        C517   1.355       .  A
N516        H524   1.044       .  S
C517        C518   1.396       .  A
C518        H522   1.082       .  S
C525        C530   1.385       .  A
C525        C526   1.399       .  A
C525        N531   1.338       .  A
C526        C527   1.398       .  A
C526        H537   1.083       .  S
C527        C536   1.372       .  A
C527        C528   1.385       .  A
C528        C529   1.405       .  A
C528        N534   1.345       .  A
C529        C530   1.404       .  A
C529        H538   1.082       .  S
C530        C533   1.381       .  A
N531        C532   1.354       .  A
N531        H541   1.045       .  S
C532        C533   1.395       .  A
C533        H539   1.082       .  S
N534        C535   1.356       .  A
N534        H542   1.043       .  S
C535        C536   1.392       .  A
C536        H540   1.083       .  S
C543        C548   1.385       .  A
C543        C544   1.402   1_545  A
C543        N549   1.343       .  A
C544        C545   1.401       .  A
C544        H555   1.082       .  S
C545        C554   1.376       .  A
C545        C546   1.385       .  A
C546        C547   1.404       .  A
C546        N552   1.345       .  A
C547        C548   1.404   1_565  A
C547        H556   1.082       .  S
C548        C551   1.379       .  A
N549        C550   1.355       .  A
N549        H559   1.045       .  S
C550        C551   1.395       .  A
C551        H557   1.082       .  S
N552        C553   1.356       .  A
N552        H560   1.045       .  S
C553        C554   1.394       .  A
C554        H558   1.082       .  S
C561        C566   1.385       .  A
C561        C562   1.402       .  A
C561        N567   1.345       .  A
C562        C563   1.402       .  A
C562        H573   1.082       .  S
C563        C572   1.374       .  A
C563        C564   1.386       .  A
C564        C565   1.400       .  A
C564        N570   1.342       .  A
C565        C566   1.400       .  A
C565        H574   1.083       .  S
C566        C569   1.372       .  A
N567        C568   1.355       .  A
N567        H577   1.043       .  S
C568        C569   1.392       .  A
C569        H575   1.083       .  S
N570        C571   1.353       .  A
N570        H578   1.045       .  S
C571        C572   1.394       .  A
C572        H576   1.083       .  S
C579        C584   1.385       .  A
C579        C580   1.402       .  A
C579        N585   1.341       .  A
C580        C581   1.400       .  A
C580        H591   1.083       .  S
C581        C590   1.378       .  A
C581        C582   1.386       .  A
C582        C583   1.403       .  A
C582        N588   1.341       .  A
C583        C584   1.401       .  A
C583        H592   1.083       .  S
C584        C587   1.380       .  A
N585        C586   1.354       .  A
N585        H595   1.044       .  S
C586        C587   1.395       .  A
C587        H593   1.082       .  S
N588        C589   1.355       .  A
N588        H596   1.045       .  S
C589        C590   1.393       .  A
C590        H594   1.083       .  S
C597        C602   1.385       .  A
C597        C598   1.400       .  A
C597        N603   1.342       .  A
C598        C599   1.400       .  A
C598        H609   1.082       .  S
C599        C608   1.373       .  A
C599        C600   1.385       .  A
C600        C601   1.404       .  A
C600        N606   1.344       .  A
C601        C602   1.404       .  A
C601        H610   1.082       .  S
C602        C605   1.378       .  A
N603        C604   1.354       .  A
N603        H613   1.045       .  S
C604        C605   1.396       .  A
C605        H611   1.082       .  S
N606        C607   1.355       .  A
N606        H614   1.045       .  S
C607        C608   1.393       .  A
C608        H612   1.083       .  S
C615        C620   1.385       .  A
C615        C616   1.406       .  A
C615        N621   1.345       .  A
C616        C617   1.404       .  A
C616        H627   1.082       .  S
C617        C626   1.383       .  A
C617        C618   1.385       .  A
C618        C619   1.403       .  A
C618        N624   1.341       .  A
C619        C620   1.401       .  A
C619        H628   1.083       .  S
C620        C623   1.378       .  A
N621        C622   1.357       .  A
N621        H631   1.044       .  S
C622        C623   1.394       .  A
C623        H629   1.083       .  S
N624        C625   1.355       .  A
N624        H632   1.046       .  S
C625        C626   1.395       .  A
C626        H630   1.082       .  S
C633        C638   1.385       .  A
C633        C634   1.399       .  A
C633        N639   1.339   1_655  A
C634        C635   1.398       .  A
C634        H645   1.083       .  S
C635        C644   1.373       .  A
C635        C636   1.384       .  A
C636        C637   1.408       .  A
C636        N642   1.347       .  A
C637        C638   1.407       .  A
C637        H646   1.082       .  S
C638        C641   1.384       .  A
N639        C640   1.353       .  A
N639        H649   1.046       .  S
C640        C641   1.398   1_455  A
C641        H647   1.082       .  S
N642        C643   1.357       .  A
N642        H650   1.044       .  S
C643        C644   1.393       .  A
C644        H648   1.083       .  S
C651        C656   1.385       .  A
C651        C652   1.404       .  A
C651        N657   1.346       .  A
C652        C653   1.404       .  A
C652        H663   1.082       .  S
C653        C662   1.378       .  A
C653        C654   1.386       .  A
C654        C655   1.402       .  A
C654        N660   1.344       .  A
C655        C656   1.401       .  A
C655        H664   1.083       .  S
C656        C659   1.374       .  A
N657        C658   1.356       .  A
N657        H667   1.045       .  S
C658        C659   1.393       .  A
C659        H665   1.083       .  S
N660        C661   1.355       .  A
N660        H668   1.044       .  S
C661        C662   1.395       .  A
C662        H666   1.083       .  S
C669        C674   1.385       .  A
C669        C670   1.403       .  A
C669        N675   1.343       .  A
C670        C671   1.402       .  A
C670        H681   1.082   1_556  S
C671        C680   1.378       .  A
C671        C672   1.385       .  A
C672        C673   1.402       .  A
C672        N678   1.343       .  A
C673        C674   1.401       .  A
C673        H682   1.082       .  S
C674        C677   1.377       .  A
N675        C676   1.355       .  A
N675        H685   1.046       .  S
C676        C677   1.394       .  A
C677        H683   1.082       .  S
N678        C679   1.354       .  A
N678        H686   1.045       .  S
C679        C680   1.395       .  A
C680        H684   1.082   1_556  S
C687        C692   1.385       .  A
C687        C688   1.402       .  A
C687        N693   1.344       .  A
C688        C689   1.402       .  A
C688        H699   1.083       .  S
C689        C698   1.375       .  A
C689        C690   1.385       .  A
C690        C691   1.401       .  A
C690        N696   1.343       .  A
C691        C692   1.401       .  A
C691        H700   1.083       .  S
C692        C695   1.375       .  A
N693        C694   1.355       .  A
N693        H703   1.044       .  S
C694        C695   1.393       .  A
C695        H701   1.083       .  S
N696        C697   1.354       .  A
N696        H704   1.045       .  S
C697        C698   1.394       .  A
C698        H702   1.083       .  S
C705        C710   1.385       .  A
C705        C706   1.404       .  A
C705        N711   1.342       .  A
C706        C707   1.402       .  A
C706        H717   1.083       .  S
C707        C716   1.381       .  A
C707        C708   1.385       .  A
C708        C709   1.404       .  A
C708        N714   1.343       .  A
C709        C710   1.402       .  A
C709        H718   1.083       .  S
C710        C713   1.381       .  A
N711        C712   1.355       .  A
N711        H721   1.046       .  S
C712        C713   1.395       .  A
C713        H719   1.083       .  S
N714        C715   1.356       .  A
N714        H722   1.044       .  S
C715        C716   1.395       .  A
C716        H720   1.082       .  S
C723        C728   1.384       .  A
C723        C724   1.403       .  A
C723        N729   1.342       .  A
C724        C725   1.402       .  A
C724        H735   1.082       .  S
C725        C734   1.378       .  A
C725        C726   1.384       .  A
C726        C727   1.405       .  A
C726        N732   1.344       .  A
C727        C728   1.403       .  A
C727        H736   1.082       .  S
C728        C731   1.381       .  A
N729        C730   1.356       .  A
N729        H739   1.045       .  S
C730        C731   1.395       .  A
C731        H737   1.082       .  S
N732        C733   1.356       .  A
N732        H740   1.043       .  S
C733        C734   1.395       .  A
C734        H738   1.082       .  S
C741        C746   1.385       .  A
C741        C742   1.402   1_545  A
C741        N747   1.343       .  A
C742        C743   1.401       .  A
C742        H753   1.082   1_556  S
C743        C752   1.376       .  A
C743        C744   1.385       .  A
C744        C745   1.404       .  A
C744        N750   1.344       .  A
C745        C746   1.404   1_565  A
C745        H754   1.082       .  S
C746        C749   1.378       .  A
N747        C748   1.355       .  A
N747        H757   1.045   1_556  S
C748        C749   1.396       .  A
C749        H755   1.082   1_455  S
N750        C751   1.355       .  A
N750        H758   1.045       .  S
C751        C752   1.394       .  A
C752        H756   1.082   1_556  S
C759        C764   1.385       .  A
C759        C760   1.405       .  A
C759        N765   1.347       .  A
C760        C761   1.405       .  A
C760        H771   1.082       .  S
C761        C770   1.379       .  A
C761        C762   1.385       .  A
C762        C763   1.401       .  A
C762        N768   1.343       .  A
C763        C764   1.401       .  A
C763        H772   1.083       .  S
C764        C767   1.374       .  A
N765        C766   1.357       .  A
N765        H775   1.044       .  S
C766        C767   1.393       .  A
C767        H773   1.083       .  S
N768        C769   1.354       .  A
N768        H776   1.045       .  S
C769        C770   1.397       .  A
C770        H774   1.082       .  S
C777        C782   1.385       .  A
C777        C778   1.406       .  A
C777        N783   1.344       .  A
C778        C779   1.404       .  A
C778        H789   1.082       .  S
C779        C788   1.383       .  A
C779        C780   1.385       .  A
C780        C781   1.402       .  A
C780        N786   1.341       .  A
C781        C782   1.400       .  A
C781        H790   1.083       .  S
C782        C785   1.377       .  A
N783        C784   1.356       .  A
N783        H793   1.045       .  S
C784        C785   1.393       .  A
C785        H791   1.083       .  S
N786        C787   1.355       .  A
N786        H794   1.044       .  S
C787        C788   1.396       .  A
C788        H792   1.082       .  S
C795        C800   1.385       .  A
C795        C796   1.403       .  A
C795        N801   1.343       .  A
C796        C797   1.402       .  A
C796        H807   1.083       .  S
C797        C806   1.377       .  A
C797        C798   1.385       .  A
C798        C799   1.402       .  A
C798        N804   1.342       .  A
C799        C800   1.401       .  A
C799        H808   1.083       .  S
C800        C803   1.376       .  A
N801        C802   1.356       .  A
N801        H811   1.044       .  S
C802        C803   1.393       .  A
C803        H809   1.083       .  S
N804        C805   1.354       .  A
N804        H812   1.045       .  S
C805        C806   1.394       .  A
C806        H810   1.082       .  S
C813        C818   1.386       .  A
C813        C814   1.406       .  A
C813        N819   1.345       .  A
C814        C815   1.404       .  A
C814        H825   1.082       .  S
C815        C824   1.382       .  A
C815        C816   1.385       .  A
C816        C817   1.399       .  A
C816        N822   1.339       .  A
C817        C818   1.398       .  A
C817        H826   1.083       .  S
C818        C821   1.373       .  A
N819        C820   1.356       .  A
N819        H829   1.044       .  S
C820        C821   1.392       .  A
C821        H827   1.083   1_655  S
N822        C823   1.353       .  A
N822        H830   1.045       .  S
C823        C824   1.395       .  A
C824        H828   1.082       .  S
C831        C836   1.385       .  A
C831        C832   1.402       .  A
C831        N837   1.342       .  A
C832        C833   1.401       .  A
C832        H843   1.082       .  S
C833        C842   1.376       .  A
C833        C834   1.385       .  A
C834        C835   1.402       .  A
C834        N840   1.342       .  A
C835        C836   1.401       .  A
C835        H844   1.082       .  S
C836        C839   1.377       .  A
N837        C838   1.355       .  A
N837        H847   1.044       .  S
C838        C839   1.394       .  A
C839        H845   1.082       .  S
N840        C841   1.354       .  A
N840        H848   1.044       .  S
C841        C842   1.394       .  A
C842        H846   1.082       .  S
C849        C854   1.384       .  A
C849        C850   1.408       .  A
C849        N855   1.348       .  A
C850        C851   1.407       .  A
C850        H861   1.082       .  S
C851        C860   1.382       .  A
C851        C852   1.385       .  A
C852        C853   1.403       .  A
C852        N858   1.343       .  A
C853        C854   1.402       .  A
C853        H862   1.082       .  S
C854        C857   1.378       .  A
N855        C856   1.359       .  A
N855        H865   1.041       .  S
C856        C857   1.394       .  A
C857        H863   1.082       .  S
N858        C859   1.354       .  A
N858        H866   1.047       .  S
C859        C860   1.398       .  A
C860        H864   1.082       .  S
C867        C872   1.385       .  A
C867        C868   1.405       .  A
C867        N873   1.345       .  A
C868        C869   1.405       .  A
C868        H879   1.082       .  S
C869        C878   1.380       .  A
C869        C870   1.384       .  A
C870        C871   1.403       .  A
C870        N876   1.345       .  A
C871        C872   1.403       .  A
C871        H880   1.082       .  S
C872        C875   1.377       .  A
N873        C874   1.356       .  A
N873        H883   1.048       .  S
C874        C875   1.395       .  A
C875        H881   1.082       .  S
N876        C877   1.356       .  A
N876        H884   1.041       .  S
C877        C878   1.396       .  A
C878        H882   1.082       .  S
C885        C890   1.384       .  A
C885        C886   1.405       .  A
C885        N891   1.345       .  A
C886        C887   1.404       .  A
C886        H897   1.082       .  S
C887        C896   1.380       .  A
C887        C888   1.385       .  A
C888        C889   1.402       .  A
C888        N894   1.342       .  A
C889        C890   1.401       .  A
C889        H898   1.082       .  S
C890        C893   1.377       .  A
N891        C892   1.357       .  A
N891        H901   1.044       .  S
C892        C893   1.394       .  A
C893        H899   1.082       .  S
N894        C895   1.354       .  A
N894        H902   1.044       .  S
C895        C896   1.396       .  A
C896        H900   1.082       .  S
C903        C908   1.385       .  A
C903        C904   1.402       .  A
C903        N909   1.344       .  A
C904        C905   1.402       .  A
C904        H915   1.082       .  S
C905        C914   1.376       .  A
C905        C906   1.384       .  A
C906        C907   1.405       .  A
C906        N912   1.347       .  A
C907        C908   1.405       .  A
C907        H916   1.082       .  S
C908        C911   1.378       .  A
N909        C910   1.355       .  A
N909        H919   1.047       .  S
C910        C911   1.396       .  A
C911        H917   1.082       .  S
N912        C913   1.357       .  A
N912        H920   1.041       .  S
C913        C914   1.393       .  A
C914        H918   1.082       .  S
C921        C926   1.385       .  A
C921        C922   1.403       .  A
C921        N927   1.344       .  A
C922        C923   1.403       .  A
C922        H933   1.082       .  S
C923        C932   1.377       .  A
C923        C924   1.385       .  A
C924        C925   1.401       .  A
C924        N930   1.342       .  A
C925        C926   1.400       .  A
C925        H934   1.082       .  S
C926        C929   1.375       .  A
N927        C928   1.356       .  A
N927        H937   1.041       .  S
C928        C929   1.393       .  A
C929        H935   1.082       .  S
N930        C931   1.353       .  A
N930        H938   1.047       .  S
C931        C932   1.395       .  A
C932        H936   1.082       .  S
C939        C944   1.385       .  A
C939        C940   1.399       .  A
C939        N945   1.339       .  A
C940        C941   1.398       .  A
C940        H951   1.083       .  S
C941        C950   1.374       .  A
C941        C942   1.385       .  A
C942        C943   1.406       .  A
C942        N948   1.345       .  A
C943        C944   1.405       .  A
C943        H952   1.082       .  S
C944        C947   1.382       .  A
N945        C946   1.352       .  A
N945        H955   1.044       .  S
C946        C947   1.397       .  A
C947        H953   1.082       .  S
N948        C949   1.357       .  A
N948        H956   1.043       .  S
C949        C950   1.392       .  A
C950        H954   1.082       .  S
C957        C962   1.384       .  A
C957        C958   1.403       .  A
C957        N963   1.344       .  A
C958        C959   1.402       .  A
C958        H969   1.082       .  S
C959        C968   1.377       .  A
C959        C960   1.385       .  A
C960        C961   1.406       .  A
C960        N966   1.345       .  A
C961        C962   1.405       .  A
C961        H970   1.082       .  S
C962        C965   1.381       .  A
N963        C964   1.356       .  A
N963        H973   1.042       .  S
C964        C965   1.396       .  A
C965        H971   1.082   1_655  S
N966        C967   1.356       .  A
N966        H974   1.047       .  S
C967        C968   1.394       .  A
C968        H972   1.082       .  S
C975        C980   1.385       .  A
C975        C976   1.402       .  A
C975        N981   1.344       .  A
C976        C977   1.402       .  A
C976        H987   1.082       .  S
C977        C986   1.375       .  A
C977        C978   1.385       .  A
C978        C979   1.403       .  A
C978        N984   1.346       .  A
C979        C980   1.404       .  A
C979        H988   1.082       .  S
C980        C983   1.377       .  A
N981        C982   1.355       .  A
N981        H991   1.045       .  S
C982        C983   1.395       .  A
C983        H989   1.083       .  S
N984        C985   1.355       .  A
N984        H992   1.044       .  S
C985        C986   1.394       .  A
C986        H990   1.083       .  S
C993        C998   1.384       .  A
C993        C994   1.405       .  A
C993        N999   1.344       .  A
C994        C995   1.404       .  A
C994       H1005   1.082       .  S
C995       C1004   1.380       .  A
C995        C996   1.385       .  A
C996        C997   1.402       .  A
C996       N1002   1.341       .  A
C997        C998   1.400       .  A
C997       H1006   1.082       .  S
C998       C1001   1.376       .  A
N999       C1000   1.357       .  A
N999       H1009   1.040       .  S
C1000      C1001   1.392       .  A
C1001      H1007   1.082       .  S
N1002      C1003   1.354       .  A
N1002      H1010   1.047       .  S
C1003      C1004   1.396       .  A
C1004      H1008   1.082       .  S
C1011      C1016   1.385       .  A
C1011      C1012   1.403       .  A
C1011      N1017   1.345       .  A
C1012      C1013   1.403       .  A
C1012      H1023   1.082       .  S
C1013      C1022   1.376       .  A
C1013      C1014   1.385       .  A
C1014      C1015   1.405       .  A
C1014      N1020   1.347       .  A
C1015      C1016   1.405       .  A
C1015      H1024   1.082       .  S
C1016      C1019   1.378       .  A
N1017      C1018   1.355       .  A
N1017      H1027   1.044       .  S
C1018      C1019   1.396       .  A
C1019      H1025   1.082       .  S
N1020      C1021   1.356       .  A
N1020      H1028   1.045       .  S
C1021      C1022   1.395       .  A
C1022      H1026   1.083       .  S
C1029      C1034   1.385       .  A
C1029      C1030   1.405       .  A
C1029      N1035   1.346       .  A
C1030      C1031   1.404   1_565  A
C1030      H1041   1.082       .  S
C1031      C1040   1.379       .  A
C1031      C1032   1.385       .  A
C1032      C1033   1.403   1_545  A
C1032      N1038   1.344       .  A
C1033      C1034   1.403       .  A
C1033      H1042   1.082       .  S
C1034      C1037   1.377       .  A
N1035      C1036   1.356       .  A
N1035      H1045   1.045       .  S
C1036      C1037   1.395       .  A
C1037      H1043   1.082       .  S
N1038      C1039   1.356       .  A
N1038      H1046   1.045       .  S
C1039      C1040   1.395       .  A
C1040      H1044   1.082       .  S
C1047      C1052   1.385       .  A
C1047      C1048   1.403       .  A
C1047      N1053   1.342       .  A
C1048      C1049   1.402       .  A
C1048      H1059   1.082       .  S
C1049      C1058   1.378       .  A
C1049      C1050   1.385       .  A
C1050      C1051   1.402       .  A
C1050      N1056   1.344       .  A
C1051      C1052   1.402       .  A
C1051      H1060   1.082       .  S
C1052      C1055   1.376       .  A
N1053      C1054   1.354       .  A
N1053      H1063   1.049       .  S
C1054      C1055   1.395       .  A
C1055      H1061   1.083       .  S
N1056      C1057   1.356       .  A
N1056      H1064   1.040       .  S
C1057      C1058   1.394       .  A
C1058      H1062   1.082       .  S
C1065      C1070   1.384       .  A
C1065      C1066   1.404       .  A
C1065      N1071   1.345       .  A
C1066      C1067   1.403       .  A
C1066      H1077   1.082       .  S
C1067      C1076   1.378       .  A
C1067      C1068   1.385       .  A
C1068      C1069   1.404       .  A
C1068      N1074   1.344       .  A
C1069      C1070   1.403       .  A
C1069      H1078   1.082       .  S
C1070      C1073   1.378       .  A
N1071      C1072   1.356       .  A
N1071      H1081   1.041       .  S
C1072      C1073   1.395       .  A
C1073      H1079   1.082       .  S
N1074      C1075   1.355       .  A
N1074      H1082   1.048       .  S
C1075      C1076   1.396       .  A
C1076      H1080   1.082       .  S
C1083      C1088   1.385       .  A
C1083      C1084   1.404       .  A
C1083      N1089   1.344       .  A
C1084      C1085   1.403       .  A
C1084      H1095   1.082       .  S
C1085      C1094   1.379       .  A
C1085      C1086   1.385       .  A
C1086      C1087   1.402       .  A
C1086      N1092   1.342       .  A
C1087      C1088   1.401       .  A
C1087      H1096   1.083       .  S
C1088      C1091   1.376       .  A
N1089      C1090   1.355       .  A
N1089      H1099   1.044       .  S
C1090      C1091   1.393       .  A
C1091      H1097   1.082       .  S
N1092      C1093   1.355       .  A
N1092      H1100   1.045   1_655  S
C1093      C1094   1.394       .  A
C1094      H1098   1.082       .  S
C1101      C1106   1.385       .  A
C1101      C1102   1.401       .  A
C1101      N1107   1.342       .  A
C1102      C1103   1.400       .  A
C1102      H1113   1.082       .  S
C1103      C1112   1.375       .  A
C1103      C1104   1.385       .  A
C1104      C1105   1.400       .  A
C1104      N1110   1.341       .  A
C1105      C1106   1.400       .  A
C1105      H1114   1.082       .  S
C1106      C1109   1.375       .  A
N1107      C1108   1.354       .  A
N1107      H1117   1.044       .  S
C1108      C1109   1.393       .  A
C1109      H1115   1.082       .  S
N1110      C1111   1.353       .  A
N1110      H1118   1.044       .  S
C1111      C1112   1.393       .  A
C1112      H1116   1.082       .  S
C1119      C1124   1.385       .  A
C1119      C1120   1.404       .  A
C1119      N1125   1.344       .  A
C1120      C1121   1.403       .  A
C1120      H1131   1.082       .  S
C1121      C1130   1.379       .  A
C1121      C1122   1.385       .  A
C1122      C1123   1.401       .  A
C1122      N1128   1.342       .  A
C1123      C1124   1.400       .  A
C1123      H1132   1.082       .  S
C1124      C1127   1.375       .  A
N1125      C1126   1.355       .  A
N1125      H1135   1.048       .  S
C1126      C1127   1.394       .  A
C1127      H1133   1.083       .  S
N1128      C1129   1.355       .  A
N1128      H1136   1.041       .  S
C1129      C1130   1.395       .  A
C1130      H1134   1.082       .  S
C1137      C1142   1.386       .  A
C1137      C1138   1.400       .  A
C1137      N1143   1.343       .  A
C1138      C1139   1.399       .  A
C1138      H1149   1.083       .  S
C1139      C1148   1.371       .  A
C1139      C1140   1.385       .  A
C1140      C1141   1.404       .  A
C1140      N1146   1.346       .  A
C1141      C1142   1.405       .  A
C1141      H1150   1.082       .  S
C1142      C1145   1.377       .  A
N1143      C1144   1.354       .  A
N1143      H1153   1.045       .  S
C1144      C1145   1.396       .  A
C1145      H1151   1.082       .  S
N1146      C1147   1.355       .  A
N1146      H1154   1.045       .  S
C1147      C1148   1.391       .  A
C1148      H1152   1.083       .  S
C1155      C1160   1.385       .  A
C1155      C1156   1.402       .  A
C1155      N1161   1.341       .  A
C1156      C1157   1.401       .  A
C1156      H1167   1.083       .  S
C1157      C1166   1.378       .  A
C1157      C1158   1.386       .  A
C1158      C1159   1.403       .  A
C1158      N1164   1.341       .  A
C1159      C1160   1.400       .  A
C1159      H1168   1.083       .  S
C1160      C1163   1.378       .  A
N1161      C1162   1.354       .  A
N1161      H1171   1.045       .  S
C1162      C1163   1.393       .  A
C1163      H1169   1.083       .  S
N1164      C1165   1.355       .  A
N1164      H1172   1.044       .  S
C1165      C1166   1.394       .  A
C1166      H1170   1.083       .  S
C1173      C1178   1.384       .  A
C1173      C1174   1.405       .  A
C1173      N1179   1.343       .  A
C1174      C1175   1.404       .  A
C1174      H1185   1.082       .  S
C1175      C1184   1.381       .  A
C1175      C1176   1.384       .  A
C1176      C1177   1.405       .  A
C1176      N1182   1.346       .  A
C1177      C1178   1.404       .  A
C1177      H1186   1.082       .  S
C1178      C1181   1.381       .  A
N1179      C1180   1.355       .  A
N1179      H1189   1.048       .  S
C1180      C1181   1.396       .  A
C1181      H1187   1.082       .  S
N1182      C1183   1.357       .  A
N1182      H1190   1.039       .  S
C1183      C1184   1.396       .  A
C1184      H1188   1.082       .  S
C1191      C1196   1.385       .  A
C1191      C1192   1.400       .  A
C1191      N1197   1.341       .  A
C1192      C1193   1.399       .  A
C1192      H1203   1.083       .  S
C1193      C1202   1.374       .  A
C1193      C1194   1.385       .  A
C1194      C1195   1.405       .  A
C1194      N1200   1.346       .  A
C1195      C1196   1.405       .  A
C1195      H1204   1.082       .  S
C1196      C1199   1.379       .  A
N1197      C1198   1.353       .  A
N1197      H1207   1.045       .  S
C1198      C1199   1.396       .  A
C1199      H1205   1.082       .  S
N1200      C1201   1.356       .  A
N1200      H1208   1.044       .  S
C1201      C1202   1.393       .  A
C1202      H1206   1.083       .  S
C1209      C1214   1.385       .  A
C1209      C1210   1.403       .  A
C1209      N1215   1.342   1_565  A
C1210      C1211   1.402       .  A
C1210      H1221   1.082       .  S
C1211      C1220   1.377       .  A
C1211      C1212   1.385       .  A
C1212      C1213   1.402   1_556  A
C1212      N1218   1.341       .  A
C1213      C1214   1.401   1_554  A
C1213      H1222   1.082       .  S
C1214      C1217   1.377   1_566  A
N1215      C1216   1.355       .  A
N1215      H1225   1.045       .  S
C1216      C1217   1.394   1_556  A
C1217      H1223   1.082       .  S
N1218      C1219   1.354       .  A
N1218      H1226   1.046   1_556  S
C1219      C1220   1.394       .  A
C1220      H1224   1.082       .  S
C1227      C1232   1.384       .  A
C1227      C1228   1.407       .  A
C1227      N1233   1.346       .  A
C1228      C1229   1.407       .  A
C1228      H1239   1.082       .  S
C1229      C1238   1.383       .  A
C1229      C1230   1.384       .  A
C1230      C1231   1.404       .  A
C1230      N1236   1.345       .  A
C1231      C1232   1.403       .  A
C1231      H1240   1.082       .  S
C1232      C1235   1.379       .  A
N1233      C1234   1.357       .  A
N1233      H1243   1.047       .  S
C1234      C1235   1.395       .  A
C1235      H1241   1.082       .  S
N1236      C1237   1.356       .  A
N1236      H1244   1.041       .  S
C1237      C1238   1.398       .  A
C1238      H1242   1.082       .  S
C1245      C1250   1.385       .  A
C1245      C1246   1.404       .  A
C1245      N1251   1.344       .  A
C1246      C1247   1.404       .  A
C1246      H1257   1.082       .  S
C1247      C1256   1.379       .  A
C1247      C1248   1.385       .  A
C1248      C1249   1.400       .  A
C1248      N1254   1.342       .  A
C1249      C1250   1.399       .  A
C1249      H1258   1.083       .  S
C1250      C1253   1.374       .  A
N1251      C1252   1.356       .  A
N1251      H1261   1.045       .  S
C1252      C1253   1.392       .  A
C1253      H1259   1.083       .  S
N1254      C1255   1.353       .  A
N1254      H1262   1.044       .  S
C1255      C1256   1.396       .  A
C1256      H1260   1.082       .  S
C1263      C1268   1.384       .  A
C1263      C1264   1.407       .  A
C1263      N1269   1.346       .  A
C1264      C1265   1.406       .  A
C1264      H1275   1.082       .  S
C1265      C1274   1.384       .  A
C1265      C1266   1.384       .  A
C1266      C1267   1.403       .  A
C1266      N1272   1.342       .  A
C1267      C1268   1.402       .  A
C1267      H1276   1.082       .  S
C1268      C1271   1.379       .  A
N1269      C1270   1.357       .  A
N1269      H1279   1.040       .  S
C1270      C1271   1.395       .  A
C1271      H1277   1.082       .  S
N1272      C1273   1.355       .  A
N1272      H1280   1.047       .  S
C1273      C1274   1.398       .  A
C1274      H1278   1.082       .  S
C1281      C1286   1.385       .  A
C1281      C1282   1.404       .  A
C1281      N1287   1.343       .  A
C1282      C1283   1.403       .  A
C1282      H1293   1.082       .  S
C1283      C1292   1.380       .  A
C1283      C1284   1.385       .  A
C1284      C1285   1.402       .  A
C1284      N1290   1.341       .  A
C1285      C1286   1.399       .  A
C1285      H1294   1.083       .  S
C1286      C1289   1.377       .  A
N1287      C1288   1.355       .  A
N1287      H1297   1.045       .  S
C1288      C1289   1.392       .  A
C1289      H1295   1.083       .  S
N1290      C1291   1.355       .  A
N1290      H1298   1.043       .  S
C1291      C1292   1.395       .  A
C1292      H1296   1.082       .  S
C1299      C1304   1.385       .  A
C1299      C1300   1.404       .  A
C1299      N1305   1.343       .  A
C1300      C1301   1.403       .  A
C1300      H1311   1.082       .  S
C1301      C1310   1.379       .  A
C1301      C1302   1.385       .  A
C1302      C1303   1.401       .  A
C1302      N1308   1.340       .  A
C1303      C1304   1.399       .  A
C1303      H1312   1.082       .  S
C1304      C1307   1.375       .  A
N1305      C1306   1.355       .  A
N1305      H1315   1.045       .  S
C1306      C1307   1.393       .  A
C1307      H1313   1.082       .  S
N1308      C1309   1.354       .  A
N1308      H1316   1.046       .  S
C1309      C1310   1.396       .  A
C1310      H1314   1.082       .  S
C1317      C1322   1.385       .  A
C1317      C1318   1.401       .  A
C1317      N1323   1.342       .  A
C1318      C1319   1.400       .  A
C1318      H1329   1.082       .  S
C1319      C1328   1.375       .  A
C1319      C1320   1.385       .  A
C1320      C1321   1.406       .  A
C1320      N1326   1.345       .  A
C1321      C1322   1.405       .  A
C1321      H1330   1.082       .  S
C1322      C1325   1.381       .  A
N1323      C1324   1.355       .  A
N1323      H1333   1.040       .  S
C1324      C1325   1.396       .  A
C1325      H1331   1.082       .  S
N1326      C1327   1.356       .  A
N1326      H1334   1.048       .  S
C1327      C1328   1.393       .  A
C1328      H1332   1.083       .  S
C1335      C1340   1.385       .  A
C1335      C1336   1.400       .  A
C1335      N1341   1.342       .  A
C1336      C1337   1.400       .  A
C1336      H1347   1.083       .  S
C1337      C1346   1.373       .  A
C1337      C1338   1.386       .  A
C1338      C1339   1.403       .  A
C1338      N1344   1.344       .  A
C1339      C1340   1.403       .  A
C1339      H1348   1.082       .  S
C1340      C1343   1.378       .  A
N1341      C1342   1.354       .  A
N1341      H1351   1.043       .  S
C1342      C1343   1.395       .  A
C1343      H1349   1.082       .  S
N1344      C1345   1.355       .  A
N1344      H1352   1.045       .  S
C1345      C1346   1.392       .  A
C1346      H1350   1.083       .  S
C1353      C1358   1.385       .  A
C1353      C1354   1.405       .  A
C1353      N1359   1.342       .  A
C1354      C1355   1.403       .  A
C1354      H1365   1.082       .  S
C1355      C1364   1.382       .  A
C1355      C1356   1.385       .  A
C1356      C1357   1.401       .  A
C1356      N1362   1.338       .  A
C1357      C1358   1.398       .  A
C1357      H1366   1.083       .  S
C1358      C1361   1.377       .  A
N1359      C1360   1.356       .  A
N1359      H1369   1.044       .  S
C1360      C1361   1.393       .  A
C1361      H1367   1.083       .  S
N1362      C1363   1.353       .  A
N1362      H1370   1.045       .  S
C1363      C1364   1.395       .  A
C1364      H1368   1.082       .  S
C1371      C1376   1.384       .  A
C1371      C1372   1.404       .  A
C1371      N1377   1.345       .  A
C1372      C1373   1.403       .  A
C1372      H1383   1.082       .  S
C1373      C1382   1.378       .  A
C1373      C1374   1.384       .  A
C1374      C1375   1.407       .  A
C1374      N1380   1.347       .  A
C1375      C1376   1.406       .  A
C1375      H1384   1.082       .  S
C1376      C1379   1.381       .  A
N1377      C1378   1.357       .  A
N1377      H1387   1.041       .  S
C1378      C1379   1.396       .  A
C1379      H1385   1.082       .  S
N1380      C1381   1.357       .  A
N1380      H1388   1.047       .  S
C1381      C1382   1.395       .  A
C1382      H1386   1.082       .  S
C1389      C1394   1.386       .  A
C1389      C1390   1.400       .  A
C1389      N1395   1.342       .  A
C1390      C1391   1.399       .  A
C1390      H1401   1.083       .  S
C1391      C1400   1.374       .  A
C1391      C1392   1.385       .  A
C1392      C1393   1.403       .  A
C1392      N1398   1.345       .  A
C1393      C1394   1.403       .  A
C1393      H1402   1.083       .  S
C1394      C1397   1.377       .  A
N1395      C1396   1.354       .  A
N1395      H1405   1.045       .  S
C1396      C1397   1.395       .  A
C1397      H1403   1.083       .  S
N1398      C1399   1.355       .  A
N1398      H1406   1.044       .  S
C1399      C1400   1.392       .  A
C1400      H1404   1.083       .  S
C1407      C1412   1.386       .  A
C1407      C1408   1.402       .  A
C1407      N1413   1.345       .  A
C1408      C1409   1.402       .  A
C1408      H1419   1.082       .  S
C1409      C1418   1.375       .  A
C1409      C1410   1.385       .  A
C1410      C1411   1.402       .  A
C1410      N1416   1.345       .  A
C1411      C1412   1.403       .  A
C1411      H1420   1.082       .  S
C1412      C1415   1.376       .  A
N1413      C1414   1.355       .  A
N1413      H1423   1.045       .  S
C1414      C1415   1.395       .  A
C1415      H1421   1.083       .  S
N1416      C1417   1.355       .  A
N1416      H1424   1.044       .  S
C1417      C1418   1.394       .  A
C1418      H1422   1.083       .  S
C1425      C1430   1.385       .  A
C1425      C1426   1.400       .  A
C1425      N1431   1.341       .  A
C1426      C1427   1.400       .  A
C1426      H1437   1.082       .  S
C1427      C1436   1.374       .  A
C1427      C1428   1.385       .  A
C1428      C1429   1.402       .  A
C1428      N1434   1.342       .  A
C1429      C1430   1.401       .  A
C1429      H1438   1.082       .  S
C1430      C1433   1.375       .  A
N1431      C1432   1.353       .  A
N1431      H1441   1.046       .  S
C1432      C1433   1.394       .  A
C1433      H1439   1.082   1_455  S
N1434      C1435   1.355       .  A
N1434      H1442   1.045       .  S
C1435      C1436   1.393       .  A
C1436      H1440   1.082       .  S
C1443      C1448   1.384       .  A
C1443      C1444   1.404       .  A
C1443      N1449   1.344       .  A
C1444      C1445   1.403       .  A
C1444      H1455   1.082       .  S
C1445      C1454   1.378       .  A
C1445      C1446   1.384       .  A
C1446      C1447   1.408       .  A
C1446      N1452   1.348       .  A
C1447      C1448   1.408       .  A
C1447      H1456   1.082       .  S
C1448      C1451   1.383       .  A
N1449      C1450   1.355       .  A
N1449      H1459   1.047       .  S
C1450      C1451   1.399       .  A
C1451      H1457   1.082       .  S
N1452      C1453   1.359       .  A
N1452      H1460   1.041       .  S
C1453      C1454   1.394       .  A
C1454      H1458   1.082       .  S
C1461      C1466   1.385       .  A
C1461      C1462   1.401       .  A
C1461      N1467   1.342       .  A
C1462      C1463   1.400       .  A
C1462      H1473   1.083       .  S
C1463      C1472   1.375       .  A
C1463      C1464   1.385       .  A
C1464      C1465   1.407       .  A
C1464      N1470   1.347       .  A
C1465      C1466   1.407       .  A
C1465      H1474   1.082       .  S
C1466      C1469   1.382       .  A
N1467      C1468   1.354       .  A
N1467      H1477   1.045       .  S
C1468      C1469   1.398       .  A
C1469      H1475   1.082       .  S
N1470      C1471   1.357       .  A
N1470      H1478   1.045       .  S
C1471      C1472   1.393       .  A
C1472      H1476   1.083       .  S
C1479      C1484   1.385       .  A
C1479      C1480   1.403       .  A
C1479      N1485   1.343       .  A
C1480      C1481   1.402       .  A
C1480      H1491   1.083       .  S
C1481      C1490   1.379       .  A
C1481      C1482   1.386       .  A
C1482      C1483   1.402       .  A
C1482      N1488   1.341       .  A
C1483      C1484   1.400       .  A
C1483      H1492   1.083       .  S
C1484      C1487   1.376       .  A
N1485      C1486   1.355       .  A
N1485      H1495   1.045       .  S
C1486      C1487   1.392       .  A
C1487      H1493   1.083       .  S
N1488      C1489   1.355       .  A
N1488      H1496   1.045       .  S
C1489      C1490   1.394       .  A
C1490      H1494   1.083       .  S
C1497      C1502   1.384       .  A
C1497      C1498   1.405       .  A
C1497      N1503   1.344       .  A
C1498      C1499   1.404       .  A
C1498      H1509   1.082       .  S
C1499      C1508   1.380       .  A
C1499      C1500   1.384       .  A
C1500      C1501   1.404       .  A
C1500      N1506   1.344       .  A
C1501      C1502   1.403       .  A
C1501      H1510   1.082       .  S
C1502      C1505   1.379       .  A
N1503      C1504   1.356       .  A
N1503      H1513   1.047       .  S
C1504      C1505   1.396       .  A
C1505      H1511   1.082       .  S
N1506      C1507   1.356       .  A
N1506      H1514   1.041       .  S
C1507      C1508   1.395       .  A
C1508      H1512   1.082       .  S
C1515      C1520   1.385       .  A
C1515      C1516   1.403       .  A
C1515      N1521   1.342       .  A
C1516      C1517   1.401       .  A
C1516      H1527   1.082       .  S
C1517      C1526   1.380       .  A
C1517      C1518   1.384       .  A
C1518      C1519   1.407       .  A
C1518      N1524   1.345       .  A
C1519      C1520   1.405       .  A
C1519      H1528   1.082       .  S
C1520      C1523   1.382       .  A
N1521      C1522   1.354       .  A
N1521      H1531   1.045       .  S
C1522      C1523   1.397       .  A
C1523      H1529   1.082       .  S
N1524      C1525   1.358       .  A
N1524      H1532   1.043       .  S
C1525      C1526   1.394       .  A
C1526      H1530   1.082       .  S
C1533      C1538   1.386       .  A
C1533      C1534   1.402       .  A
C1533      N1539   1.343       .  A
C1534      C1535   1.401       .  A
C1534      H1545   1.083       .  S
C1535      C1544   1.375       .  A
C1535      C1536   1.385       .  A
C1536      C1537   1.403       .  A
C1536      N1542   1.346       .  A
C1537      C1538   1.404       .  A
C1537      H1546   1.083       .  S
C1538      C1541   1.378       .  A
N1539      C1540   1.354       .  A
N1539      H1549   1.045       .  S
C1540      C1541   1.395       .  A
C1541      H1547   1.083       .  S
N1542      C1543   1.355       .  A
N1542      H1550   1.043       .  S
C1543      C1544   1.393       .  A
C1544      H1548   1.083       .  S
C1551      C1556   1.384       .  A
C1551      C1552   1.406       .  A
C1551      N1557   1.344       .  A
C1552      C1553   1.405       .  A
C1552      H1563   1.082       .  S
C1553      C1562   1.382       .  A
C1553      C1554   1.384       .  A
C1554      C1555   1.405   1_556  A
C1554      N1560   1.344       .  A
C1555      C1556   1.403   1_554  A
C1555      H1564   1.082       .  S
C1556      C1559   1.381       .  A
N1557      C1558   1.357       .  A
N1557      H1567   1.044       .  S
C1558      C1559   1.395       .  A
C1559      H1565   1.082   1_556  S
N1560      C1561   1.356       .  A
N1560      H1568   1.045   1_556  S
C1561      C1562   1.397       .  A
C1562      H1566   1.082       .  S
