geometry optimzed in LAMMPS
_audit_creation_date              2020-12-01 
_audit_creation_method            'lammps2cif' 
_symmetry_space_group_name_H-M    'P1' 
_symmetry_Int_Tables_number       1 
_symmetry_cell_setting            triclinic 
loop_ 
_symmetry_equiv_pos_as_xyz 
  x,y,z 
_cell_length_a                    47.34485407 
_cell_length_b                    46.70904879594412 
_cell_length_c                    50.955143608775245 
_cell_angle_alpha                 90.17895275151795 
_cell_angle_beta                  89.96174096206354 
_cell_angle_gamma                 89.50233625151618 
loop_ 
_atom_site_label 
_atom_site_type_symbol 
_atom_site_fract_x 
_atom_site_fract_y 
_atom_site_fract_z 
_atom_site_charge 
In1        In  0.46299708  0.38420488  0.31528326     1.36900
C2          C  0.01348335  0.35670863  0.30324212     0.77600
O3          O  0.45072881  0.34051205  0.30257598    -0.60800
O4          O  0.43890806  0.37536049  0.27784750    -0.51700
C5          C  0.42359920  0.38297672  0.35332576     0.70300
O6          O  0.44848391  0.37350127  0.35659331    -0.46600
C7          C  0.47904018  0.43884913  0.31387660     0.75000
O8          O  0.50105374  0.35795527  0.32789534    -0.58400
O9          O  0.46310041  0.42787054  0.29674159    -0.48500
O10         O  0.50165074  0.37904164  0.29094336    -0.54900
C11         C  0.43852230  0.34864425  0.28191470     0.85200
O12         O  0.41950497  0.39373784  0.33094114    -0.56800
O13         O  0.48487189  0.42211769  0.33260673    -0.60100
In14       In  0.04519196  0.10659027  0.30701831     1.36900
C15         C  0.99390648  0.12710184  0.29814643     0.77600
O16         O  0.05679952  0.15051031  0.29392091    -0.60800
O17         O  0.07285337  0.11542189  0.27153731    -0.51700
C18         C  0.08235978  0.10556709  0.34686920     0.70300
O19         O  0.05841509  0.11771186  0.34845864    -0.46600
C20         C  0.02822556  0.05251316  0.30798788     0.75000
O21         O  0.00737486  0.13324653  0.31889201    -0.58400
O22         O  0.04221483  0.06241934  0.28887130    -0.48500
O23         O  0.00659664  0.11042880  0.28248691    -0.54900
C24         C  0.07129833  0.14234428  0.27451067     0.85200
O25         O  0.08702008  0.09420673  0.32472976    -0.56800
O26         O  0.02365227  0.07008305  0.32638906    -0.60100
In27       In  0.20583840  0.09370966  0.46834125     1.36900
C28         C  0.25861276  0.11021690  0.47665669     0.77600
O29         O  0.19877341  0.13781155  0.48325198    -0.60800
O30         O  0.17993316  0.10366656  0.50453299    -0.51700
C31         C  0.16831566  0.09835887  0.42912205     0.70300
O32         O  0.19409704  0.10466638  0.42650850    -0.46600
C33         C  0.21901965  0.03811565  0.46806205     0.75000
O34         O  0.24519685  0.11751124  0.45616026    -0.58400
O35         O  0.20534853  0.04957070  0.48675220    -0.48500
O36         O  0.24494981  0.09458458  0.49215503    -0.54900
C37         C  0.18409584  0.13034595  0.50265389     0.85200
O38         O  0.16187473  0.08995563  0.45185971    -0.56800
O39         O  0.22368328  0.05490896  0.44922287    -0.60100
In40       In  0.29031044  0.37209867  0.46539931     1.36900
C41         C  0.23954586  0.34948178  0.47099361     0.77600
O42         O  0.30572822  0.32831807  0.47440126    -0.60800
O43         O  0.31462143  0.36128402  0.50226267    -0.51700
C44         C  0.33033041  0.37586305  0.42843265     0.70300
O45         O  0.30605429  0.36578683  0.42388641    -0.46600
C46         C  0.27334109  0.42638035  0.46702550     0.75000
O47         O  0.25406010  0.34522235  0.45041869    -0.58400
O48         O  0.28532558  0.41456721  0.48647049    -0.48500
O49         O  0.25089487  0.36538357  0.48791388    -0.54900
C50         C  0.31725460  0.33519116  0.49576910     0.85200
O51         O  0.33368646  0.38419713  0.45183243    -0.56800
O52         O  0.27066415  0.41043476  0.44717424    -0.60100
In53       In  0.10825115  0.44479630  0.71500018     1.36900
C54         C  0.13132522  0.49501523  0.72505603     0.77600
O55         O  0.07186144  0.47004711  0.69929745    -0.60800
O56         O  0.06574171  0.44733851  0.73470638    -0.51700
C57         C  0.10828811  0.40832046  0.67418242     0.70300
O58         O  0.11693204  0.43377513  0.67229186    -0.46600
C59         C  0.14253901  0.41594438  0.74653191     0.75000
O60         O  0.13558756  0.48198473  0.70355503    -0.58400
O61         O  0.11615558  0.41679724  0.75062735    -0.48500
O62         O  0.11516210  0.48240359  0.74082564    -0.54900
C63         C  0.05564137  0.46500856  0.71838264     0.85200
O64         O  0.09883806  0.40209516  0.69660316    -0.56800
O65         O  0.15083086  0.43003331  0.72699571    -0.60100
In66       In  0.38927892  0.02620096  0.71593146     1.36900
C67         C  0.36761230  0.47493524  0.72375177     0.77600
O68         O  0.43001082  0.01063784  0.69909070    -0.60800
O69         O  0.42992588  0.02465020  0.73884688    -0.51700
C70         C  0.38781663  0.06601110  0.67803740     0.70300
O71         O  0.38200787  0.03996803  0.67393082    -0.46600
C72         C  0.35354108  0.04756389  0.75077730     0.75000
O73         O  0.36242565  0.98953297  0.70106069    -0.58400
O74         O  0.37985283  0.05153286  0.75265924    -0.48500
O75         O  0.38732735  0.98379525  0.73533141    -0.54900
C76         C  0.44391613  0.01416878  0.71993905     0.85200
O77         O  0.39430938  0.07125147  0.70151493    -0.56800
O78         O  0.34591832  0.03377118  0.73079870    -0.60100
In79       In  0.39280714  0.18624400  0.55287245     1.36900
C80         C  0.37134815  0.23757099  0.54236378     0.77600
O81         O  0.42916181  0.20834372  0.57115613    -0.60800
O82         O  0.43580590  0.18914559  0.53372755    -0.51700
C83         C  0.39153170  0.14864701  0.59229466     0.70300
O84         O  0.38229071  0.17406774  0.59461482    -0.46600
C85         C  0.35716762  0.15963933  0.52151960     0.75000
O86         O  0.36781925  0.22563996  0.56442378    -0.58400
O87         O  0.38360349  0.15827095  0.51761632    -0.48500
O88         O  0.38617037  0.22320984  0.52639038    -0.54900
C89         C  0.44583831  0.20417030  0.55220243     0.85200
O90         O  0.40243643  0.14319986  0.57020528    -0.56800
O91         O  0.34957252  0.17379197  0.54144709    -0.60100
In92       In  0.10860917  0.27961184  0.55494557     1.36900
C93         C  0.13150606  0.22841611  0.54772948     0.77600
O94         O  0.07303019  0.25421507  0.57217474    -0.60800
O95         O  0.06547844  0.27558136  0.53638210    -0.51700
C96         C  0.10992469  0.31906693  0.59354279     0.70300
O97         O  0.12133293  0.29460386  0.59533932    -0.46600
C98         C  0.14268734  0.30398277  0.52032402     0.75000
O99         O  0.13443976  0.24181601  0.56922850    -0.58400
O100        O  0.11607839  0.30580930  0.51810316    -0.48500
O101        O  0.11738320  0.24143797  0.53045836    -0.54900
C102        C  0.05612387  0.25839355  0.55338254     0.85200
O103        O  0.09710013  0.32285437  0.57208310    -0.56800
O104        O  0.15120459  0.29070273  0.54032274    -0.60100
In105      In  0.46154660  0.35947051  0.95630281     1.36900
C106        C  0.00899012  0.37330963  0.97339235     0.77600
O107        O  0.45011766  0.40413743  0.96725942    -0.60800
O108        O  0.43504976  0.37075030  0.99184592    -0.51700
C109        C  0.42290083  0.35971022  0.91787702     0.70300
O110        O  0.44753070  0.36950911  0.91459063    -0.46600
C111        C  0.47851301  0.30480093  0.95838215     0.75000
O112        O  0.50118343  0.38318270  0.94478996    -0.58400
O113        O  0.46210555  0.31583066  0.97532389    -0.48500
O114        O  0.49723377  0.36584985  0.98338941    -0.54900
C115        C  0.43671678  0.39744518  0.98770135     0.85200
O116        O  0.41891452  0.34929832  0.94040237    -0.56800
O117        O  0.48474982  0.32160597  0.93990442    -0.60100
In118      In  0.04352628  0.13261752  0.96492384     1.36900
C119        C  0.99059748  0.11578350  0.97216030     0.77600
O120        O  0.05466510  0.08808644  0.97675661    -0.60800
O121        O  0.06926687  0.12213031  0.00112507    -0.51700
C122        C  0.08294450  0.13086756  0.92760232     0.70300
O123        O  0.05830438  0.12114231  0.92434603    -0.46600
C124        C  0.02889945  0.18753265  0.96354662     0.75000
O125        O  0.00395055  0.10994410  0.95120065    -0.58400
O126        O  0.04039962  0.17641764  0.98359532    -0.48500
O127        O  0.00464901  0.12979717  0.98877699    -0.54900
C128        C  0.06855801  0.09541125  0.99675520     0.85200
O129        O  0.08698661  0.14181759  0.94998621    -0.56800
O130        O  0.02657333  0.17090108  0.94414706    -0.60100
In131      In  0.29114720  0.34524138  0.80594277     1.36900
C132        C  0.23900396  0.36361845  0.79535865     0.77600
O133        O  0.30016752  0.38822743  0.79037547    -0.60800
O134        O  0.31804525  0.35253610  0.76983385    -0.51700
C135        C  0.33014871  0.35218257  0.84307571     0.70300
O136        O  0.30484006  0.36067184  0.84593498    -0.46600
C137        C  0.27743675  0.29028421  0.80983221     0.75000
O138        O  0.25097944  0.36922958  0.81700856    -0.58400
O139        O  0.28991786  0.30024867  0.78988284    -0.48500
O140        O  0.25373240  0.34820483  0.78012668    -0.54900
C141        C  0.31486868  0.37948755  0.77129463     0.85200
O142        O  0.33494960  0.33965103  0.82151881    -0.56800
O143        O  0.27358298  0.30826710  0.82800887    -0.60100
In144      In  0.21111774  0.12273248  0.81195403     1.36900
C145        C  0.26104235  0.09866295  0.80395194     0.77600
O146        O  0.19545107  0.08061196  0.79858634    -0.60800
O147        O  0.18633624  0.11650268  0.77432879    -0.51700
C148        C  0.17382267  0.12550789  0.85084523     0.70300
O149        O  0.19803966  0.11436388  0.85388475    -0.46600
C150        C  0.22928740  0.17622108  0.81099937     0.75000
O151        O  0.24658056  0.09294951  0.82416617    -0.58400
O152        O  0.21342369  0.16590509  0.79348330    -0.48500
O153        O  0.24993365  0.11641547  0.78842974    -0.54900
C154        C  0.18476942  0.08971904  0.77750283     0.85200
O155        O  0.16923412  0.13515746  0.82814117    -0.56800
O156        O  0.23458127  0.15930339  0.82968813    -0.60100
In157      In  0.35631343  0.04305722  0.05202071     1.36900
C158        C  0.37992555  0.48948008  0.04104000     0.77600
O159        O  0.32030979  0.02094497  0.07131583    -0.60800
O160        O  0.31262886  0.04062636  0.03459878    -0.51700
C161        C  0.36062415  0.08011778  0.09166637     0.70300
O162        O  0.37049984  0.05489174  0.09278162    -0.46600
C163        C  0.39080483  0.07043784  0.02030120     0.75000
O164        O  0.38095609  0.00319863  0.06206662    -0.58400
O165        O  0.36423791  0.07208747  0.01739417    -0.48500
O166        O  0.36191039  0.00692614  0.02420201    -0.54900
C167        C  0.30308527  0.02494640  0.05272394     0.85200
O168        O  0.34750765  0.08559137  0.07064848    -0.56800
O169        O  0.39915553  0.05506013  0.03906972    -0.60100
In170      In  0.13951843  0.45061061  0.05662032     1.36900
C171        C  0.11709289  0.50156087  0.04687650     0.77600
O172        O  0.17508762  0.47694718  0.07185889    -0.60800
O173        O  0.18312350  0.44997764  0.03878864    -0.51700
C174        C  0.14273678  0.41269358  0.09589900     0.70300
O175        O  0.13045605  0.43677444  0.09845689    -0.46600
C176        C  0.10416168  0.42407945  0.02436445     0.75000
O177        O  0.11361593  0.48941274  0.06887582    -0.58400
O178        O  0.13021119  0.42620048  0.01917569    -0.48500
O179        O  0.13219973  0.48770443  0.03077508    -0.54900
C180        C  0.19250084  0.46849530  0.05468423     0.85200
O181        O  0.15359365  0.40886677  0.07357096    -0.56800
O182        O  0.09669831  0.43457623  0.04614406    -0.60100
In183      In  0.36631311  0.20571952  0.21139622     1.36900
C184        C  0.38791198  0.25515102  0.22610474     0.77600
O185        O  0.33200033  0.23071713  0.19194254    -0.60800
O186        O  0.32245998  0.20942797  0.22777774    -0.51700
C187        C  0.36664374  0.16884260  0.17166235     0.70300
O188        O  0.37721349  0.19358104  0.16980916    -0.46600
C189        C  0.40043883  0.17789490  0.24339336     0.75000
O190        O  0.39318268  0.24447049  0.20366789    -0.58400
O191        O  0.37387073  0.17746087  0.24664318    -0.48500
O192        O  0.37129007  0.24059641  0.23998886    -0.54900
C193        C  0.31403444  0.22598472  0.20967025     0.85200
O194        O  0.35575197  0.16346429  0.19373576    -0.56800
O195        O  0.40885895  0.19121307  0.22339857    -0.60100
In196      In  0.14770081  0.28952766  0.21876126     1.36900
C197        C  0.12906920  0.23677577  0.22744303     0.77600
O198        O  0.18470497  0.26972957  0.19881085    -0.60800
O199        O  0.19171913  0.29131137  0.23494733    -0.51700
C200        C  0.14537047  0.32918475  0.18103492     0.70300
O201        O  0.13717266  0.30370313  0.17748998    -0.46600
C202        C  0.11162848  0.31122981  0.25335685     0.75000
O203        O  0.12219547  0.25079047  0.20709059    -0.58400
O204        O  0.13806067  0.31243724  0.25713137    -0.48500
O205        O  0.14640249  0.24931278  0.24223605    -0.54900
C206        C  0.20224171  0.27667747  0.21633941     0.85200
O207        O  0.15454249  0.33403951  0.20383524    -0.56800
O208        O  0.10445375  0.30009111  0.23182011    -0.60100
C209        C  0.27690404  0.25180693  0.23428642    -0.05700
C210        C  0.28598731  0.24025036  0.21024978     0.00200
C211        C  0.26866293  0.24326019  0.18776050    -0.08400
C212        C  0.24205178  0.25653163  0.19060192    -0.05800
C213        C  0.23229362  0.26703697  0.21493050     0.00200
C214        C  0.25050578  0.26562405  0.23705701    -0.08300
C215        C  0.24229584  0.27809453  0.26358314     0.62100
H216        H  0.29090485  0.24997206  0.25101291     0.12800
H217        H  0.22831047  0.25829984  0.17370194     0.12800
C218        C  0.27743723  0.23129422  0.16117191     0.62300
F219        F  0.26350489  0.27460524  0.28202266    -0.22800
F220        F  0.21845419  0.26461172  0.27296427    -0.20200
F221        F  0.23705592  0.30715475  0.26114290    -0.19800
F222        F  0.28353395  0.20239571  0.16344184    -0.19900
F223        F  0.30098147  0.24545181  0.15203779    -0.20200
F224        F  0.25631178  0.23446949  0.14259088    -0.22900
C225        C  0.13946570  0.39999862  0.14328893    -0.05700
C226        C  0.14417029  0.39079402  0.11732980     0.00200
C227        C  0.14956179  0.36113669  0.11261526    -0.08400
C228        C  0.14938242  0.34199321  0.13398673    -0.05800
C229        C  0.14489361  0.35125864  0.15987373     0.00200
C230        C  0.14008708  0.38088611  0.16471653    -0.08300
C231        C  0.13503459  0.39238034  0.19225779     0.62100
H232        H  0.13564129  0.42256053  0.14676114     0.12800
H233        H  0.15329856  0.31941966  0.13068338     0.12800
C234        C  0.15522744  0.34928780  0.08525911     0.62300
F235        F  0.12742106  0.42106337  0.19218305    -0.22800
F236        F  0.15945355  0.38958126  0.20694781    -0.20200
F237        F  0.11344012  0.37737508  0.20407607    -0.19800
F238        F  0.18006148  0.36050641  0.07553373    -0.19900
F239        F  0.13301317  0.35623756  0.06877265    -0.20200
F240        F  0.15812614  0.31976618  0.08520553    -0.22900
C241        C  0.37078748  0.11829983  0.15768221    -0.05700
C242        C  0.36727948  0.14706302  0.15030879     0.00200
C243        C  0.36334784  0.15377206  0.12344719    -0.08400
C244        C  0.36168600  0.13115177  0.10516132    -0.05800
C245        C  0.36436675  0.10223844  0.11259440     0.00200
C246        C  0.36997802  0.09570337  0.13931776    -0.08300
C247        C  0.37481078  0.06522097  0.14871822     0.62100
H248        H  0.37434862  0.11364330  0.17827751     0.12800
H249        H  0.35813427  0.13599455  0.08461258     0.12800
C250        C  0.35972952  0.18445246  0.11414592     0.62300
F251        F  0.37859663  0.06388927  0.17563745    -0.22800
F252        F  0.39884627  0.05397436  0.13701416    -0.20200
F253        F  0.35176632  0.04855761  0.14242766    -0.19800
F254        F  0.38390421  0.19981846  0.11944422    -0.19900
F255        F  0.33695530  0.19706288  0.12682431    -0.20200
F256        F  0.35490110  0.18594227  0.08738231    -0.22900
C257        C  0.26699067  0.99526656  0.07483407    -0.05700
C258        C  0.27480221  0.01075920  0.05231709     0.00200
C259        C  0.24957147  0.52394995  0.04677399    -0.08400
C260        C  0.22326811  0.51004436  0.04745543    -0.05800
C261        C  0.22112107  0.48071762  0.05286482     0.00200
C262        C  0.24177916  0.97957823  0.07620006    -0.08300
C263        C  0.23481150  0.96331229  0.10113228     0.62100
H264        H  0.28084156  0.99558939  0.09171591     0.12800
H265        H  0.20396711  0.52203764  0.04387435     0.12800
C266        C  0.25056517  0.55589966  0.04156289     0.62300
F267        F  0.25749820  0.96234868  0.11825880    -0.22800
F268        F  0.22763191  0.93540714  0.09509300    -0.20200
F269        F  0.21249734  0.97660584  0.11391342    -0.19800
F270        F  0.26487923  0.56096548  0.01840986    -0.19900
F271        F  0.26414811  0.56953894  0.06205599    -0.20200
F272        F  0.22378334  0.56778079  0.03925236    -0.22900
C273        C  0.25863392  0.24760723  0.78711422    -0.05700
C274        C  0.26644917  0.26051420  0.81094353     0.00200
C275        C  0.26212976  0.24541607  0.83477157    -0.08400
C276        C  0.24993058  0.21804108  0.83370043    -0.05800
C277        C  0.24137049  0.20550318  0.80992938     0.00200
C278        C  0.24586050  0.22049600  0.78610568    -0.08300
C279        C  0.23746155  0.20811865  0.75963334     0.62100
H280        H  0.26184609  0.25943017  0.76914973     0.12800
H281        H  0.24651035  0.20631700  0.85168181     0.12800
C282        C  0.27066170  0.25764281  0.86127314     0.62300
F283        F  0.24562183  0.22543409  0.73903381    -0.22800
F284        F  0.20841378  0.20542441  0.75845231    -0.20200
F285        F  0.25016838  0.18159295  0.75606522    -0.19800
F286        F  0.25381370  0.28104382  0.86741410    -0.19900
F287        F  0.29867723  0.26577869  0.86057356    -0.20200
F288        F  0.26768394  0.23787624  0.88126604    -0.22900
C289        C  0.44532852  0.12273608  0.99675086    -0.05700
C290        C  0.46024238  0.10588717  0.97830721     0.00200
C291        C  0.44937107  0.07870235  0.97110464    -0.08400
C292        C  0.42481157  0.06886523  0.98379545    -0.05800
C293        C  0.41134018  0.08502007  0.00343205     0.00200
C294        C  0.42137638  0.11248347  0.00988167    -0.08300
C295        C  0.40776958  0.13007301  0.03167408     0.62100
H296        H  0.45356101  0.14351158  0.00197796     0.12800
H297        H  0.41682559  0.04770224  0.97962259     0.12800
C298        C  0.46425596  0.05936782  0.95140147     0.62300
F299        F  0.42032465  0.15656862  0.03451198    -0.22800
F300        F  0.41027094  0.11568269  0.05525703    -0.20200
F301        F  0.37946858  0.13443208  0.02616595    -0.19800
F302        F  0.49148558  0.05353565  0.95976446    -0.19900
F303        F  0.96373009  0.08089416  0.92416090    -0.20200
F304        F  0.45055004  0.03349464  0.94830943    -0.22900
C305        C  0.06800891  0.05765661  0.03083844    -0.05700
C306        C  0.08354169  0.07387019  0.01285113     0.00200
C307        C  0.11204206  0.06665124  0.00776465    -0.08400
C308        C  0.12375618  0.04232563  0.01991565    -0.05800
C309        C  0.10787812  0.02492710  0.03681672     0.00200
C310        C  0.07978762  0.03332205  0.04326996    -0.08300
C311        C  0.06194149  0.01630813  0.06233054     0.62100
H312        H  0.04616642  0.06367902  0.03432890     0.12800
H313        H  0.14529785  0.03601705  0.01540218     0.12800
C314        C  0.12951930  0.08390812  0.98857730     0.62300
F315        F  0.03515240  0.02801767  0.06525675    -0.22800
F316        F  0.07473123  0.01611390  0.08671922    -0.20200
F317        F  0.05901793  0.98849500  0.05344995    -0.19800
F318        F  0.13033293  0.11217236  0.99667923    -0.19900
F319        F  0.11756045  0.08251867  0.96385724    -0.20200
F320        F  0.15703459  0.07378555  0.98682515    -0.22900
C321        C  0.13395304  0.13256311  0.91589560    -0.05700
C322        C  0.10580484  0.12927976  0.90739022     0.00200
C323        C  0.10054536  0.12496106  0.88021160    -0.08400
C324        C  0.12360091  0.12369465  0.86284019    -0.05800
C325        C  0.15159015  0.12650202  0.87138474     0.00200
C326        C  0.15703122  0.13127277  0.89837038    -0.08300
C327        C  0.18681796  0.13584076  0.90856122     0.62100
H328        H  0.13785157  0.13593109  0.93660784     0.12800
H329        H  0.11991160  0.12014112  0.84210669     0.12800
C330        C  0.07091530  0.12208631  0.86914909     0.62300
F331        F  0.18698803  0.14333060  0.93487858    -0.22800
F332        F  0.19958617  0.15763478  0.89469876    -0.20200
F333        F  0.20249928  0.11091842  0.90570530    -0.19800
F334        F  0.05463725  0.14551464  0.87648153    -0.19900
F335        F  0.05879952  0.09723745  0.87836568    -0.20200
F336        F  0.07089726  0.12073077  0.84198959    -0.22900
C337        C  0.39528770  0.41611666  0.01230683    -0.05700
C338        C  0.42365901  0.41942910  0.00496157     0.00200
C339        C  0.43841185  0.44437033  0.01289788    -0.08400
C340        C  0.42369039  0.46585549  0.02676236    -0.05800
C341        C  0.39484713  0.46348955  0.03211843     0.00200
C342        C  0.38038173  0.43816599  0.02538983    -0.08300
C343        C  0.34924395  0.43490188  0.03161211     0.62100
H344        H  0.38442783  0.39686349  0.00631683     0.12800
H345        H  0.43417439  0.48557694  0.03203181     0.12800
C346        C  0.46940679  0.44868074  0.00646820     0.62300
F347        F  0.33355205  0.45418060  0.01698059    -0.22800
F348        F  0.34465833  0.44016245  0.05801150    -0.20200
F349        F  0.33980788  0.40760256  0.02596458    -0.19800
F350        F  0.47253143  0.45335752  0.97986112    -0.19900
F351        F  0.48486222  0.42473183  0.01372322    -0.20200
F352        F  0.48046053  0.47203643  0.01961594    -0.22900
C353        C  0.07837842  0.38112246  0.01013547    -0.05700
C354        C  0.08353155  0.41030240  0.00675942     0.00200
C355        C  0.06673789  0.42633823  0.98903188    -0.08400
C356        C  0.04352108  0.41300622  0.97683026    -0.05800
C357        C  0.03686025  0.38432139  0.98200072     0.00200
C358        C  0.05551850  0.36763423  0.99769135    -0.08300
C359        C  0.05135575  0.33573781  0.00157618     0.62100
H360        H  0.09172546  0.36915335  0.02358651     0.12800
H361        H  0.02944794  0.42537837  0.96441652     0.12800
C362        C  0.07308696  0.45754375  0.98366495     0.62300
F363        F  0.04475274  0.32282130  0.97790957    -0.22800
F364        F  0.53876499  0.33075735  0.99606619    -0.20200
F365        F  0.58584818  0.33024779  0.99237041    -0.19800
F366        F  0.10060836  0.46003556  0.97489815    -0.19900
F367        F  0.06982563  0.47338594  0.00639832    -0.20200
F368        F  0.05531377  0.46896378  0.96476601    -0.22900
C369        C  0.37185833  0.35743609  0.90715959    -0.05700
C370        C  0.39971581  0.36037478  0.89782993     0.00200
C371        C  0.40407484  0.36309642  0.87034106    -0.08400
C372        C  0.38064312  0.36049171  0.85337302    -0.05800
C373        C  0.35299542  0.35663733  0.86278621     0.00200
C374        C  0.34835938  0.35605051  0.89024231    -0.08300
C375        C  0.31891626  0.35335236  0.90178125     0.62100
H376        H  0.36851443  0.35629433  0.92815842     0.12800
H377        H  0.38373546  0.36160592  0.83232985     0.12800
C378        C  0.43307336  0.36849624  0.85870531     0.62300
F379        F  0.31944219  0.35137922  0.92888201    -0.22800
F380        F  0.30608046  0.32902618  0.89207866    -0.20200
F381        F  0.30293525  0.37722609  0.89530067    -0.19800
F382        F  0.45140985  0.34654666  0.86549404    -0.19900
F383        F  0.44330060  0.39425674  0.86798870    -0.20200
F384        F  0.43231438  0.37005216  0.83156726    -0.22900
C385        C  0.50482533  0.26469138  0.93724768    -0.05700
C386        C  0.49031780  0.27493802  0.95959561     0.00200
C387        C  0.98338646  0.25076153  0.98410800    -0.08400
C388        C  0.99850708  0.22458119  0.98395637    -0.05800
C389        C  0.01673369  0.21688253  0.96336503     0.00200
C390        C  0.51718411  0.23717752  0.93619127    -0.08300
C391        C  0.53246760  0.22753113  0.91141641     0.62100
H392        H  0.50611856  0.27834136  0.92016774     0.12800
H393        H  0.99542731  0.20925888  0.99959002     0.12800
C394        C  0.96244651  0.25658027  0.00612552     0.62300
F395        F  0.53644346  0.24997946  0.89414889    -0.22800
F396        F  0.51679351  0.20684741  0.89873142    -0.20200
F397        F  0.55878609  0.21639612  0.91766200    -0.19800
F398        F  0.93588019  0.26143804  0.99566264    -0.19900
F399        F  0.97079709  0.28015580  0.02054653    -0.20200
F400        F  0.96045142  0.23367287  0.02319844    -0.22900
C401        C  0.98289880  0.23191358  0.53125111    -0.05700
C402        C  0.47425906  0.21731821  0.55138386     0.00200
C403        C  0.49100297  0.22039853  0.57419709    -0.08400
C404        C  0.51613988  0.23599352  0.57261238    -0.05800
C405        C  0.02826388  0.24325659  0.55159217     0.00200
C406        C  0.00889175  0.24655256  0.53037836    -0.08300
C407        C  0.01529536  0.26516113  0.50676343     0.62100
H408        H  0.96728527  0.23533608  0.51604941     0.12800
H409        H  0.52854330  0.23893571  0.59022054     0.12800
C410        C  0.48303824  0.20655527  0.60009087     0.62300
F411        F  0.03985225  0.25559542  0.49474316    -0.22800
F412        F  0.01831783  0.29333269  0.51462075    -0.20200
F413        F  0.99394846  0.26427882  0.48822689    -0.19800
F414        F  0.47504620  0.17848110  0.59590231    -0.19900
F415        F  0.46101077  0.22161341  0.61160827    -0.20200
F416        F  0.50546892  0.20618568  0.61751876    -0.22900
C417        C  0.28859769  0.05537452  0.79369969    -0.05700
C418        C  0.28834767  0.08509221  0.79767913     0.00200
C419        C  0.31203996  0.10148297  0.79005745    -0.08400
C420        C  0.33408425  0.08789221  0.77632674    -0.05800
C421        C  0.33283801  0.05882883  0.76979373     0.00200
C422        C  0.31050809  0.04185506  0.77956407    -0.08300
C423        C  0.30896158  0.00993900  0.77394517     0.62100
H424        H  0.27028058  0.04322551  0.79955836     0.12800
H425        H  0.35162096  0.10052944  0.76924888     0.12800
C426        C  0.31486853  0.13337224  0.79514915     0.62300
F427        F  0.28943450  0.99665822  0.78994728    -0.22800
F428        F  0.33498471  0.99707091  0.77825721    -0.20200
F429        F  0.30101300  0.00560239  0.74815400    -0.19800
F430        F  0.29351546  0.14452622  0.81070089    -0.19900
F431        F  0.31488413  0.14773880  0.77145218    -0.20200
F432        F  0.34017857  0.13837788  0.80783287    -0.22900
C433        C  0.32544560  0.44477487  0.72884900    -0.05700
C434        C  0.35497483  0.44674397  0.72937399     0.00200
C435        C  0.37126994  0.42341139  0.73899954    -0.08400
C436        C  0.35724691  0.40005794  0.75043638    -0.05800
C437        C  0.32776578  0.39995251  0.75291985     0.00200
C438        C  0.31145015  0.42180715  0.74086073    -0.08300
C439        C  0.27937392  0.42147030  0.74165459     0.62100
H440        H  0.31332528  0.46253866  0.72099766     0.12800
H441        H  0.36930634  0.38289382  0.75940245     0.12800
C442        C  0.40330887  0.42344792  0.73768091     0.62300
F443        F  0.26774794  0.44105892  0.72433825    -0.22800
F444        F  0.26999941  0.42828323  0.76662454    -0.20200
F445        F  0.26970163  0.39458280  0.73482241    -0.19800
F446        F  0.41399776  0.44287192  0.75553078    -0.19900
F447        F  0.41194993  0.43083518  0.71267246    -0.20200
F448        F  0.41463081  0.39676361  0.74340794    -0.22900
C449        C  0.38579763  0.07845841  0.63069354    -0.05700
C450        C  0.38763574  0.08815130  0.65677771     0.00200
C451        C  0.38915914  0.11820992  0.66150588    -0.08400
C452        C  0.39046596  0.13699847  0.63987028    -0.05800
C453        C  0.38973711  0.12710170  0.61384042     0.00200
C454        C  0.38637711  0.09731419  0.60915222    -0.08300
C455        C  0.38219178  0.08531946  0.58168642     0.62100
H456        H  0.38407393  0.05570531  0.62718230     0.12800
H457        H  0.39241478  0.15977902  0.64314569     0.12800
C458        C  0.38896154  0.13084682  0.68904522     0.62300
F459        F  0.37513316  0.05661037  0.58207102    -0.22800
F460        F  0.40677987  0.08793935  0.56729113    -0.20200
F461        F  0.36047764  0.10000088  0.56935905    -0.19800
F462        F  0.41345252  0.12311440  0.70208766    -0.19900
F463        F  0.36570861  0.12110521  0.70273181    -0.20200
F464        F  0.38744189  0.16047002  0.68875106    -0.22900
C465        C  0.13518396  0.04968296  0.73158099    -0.05700
C466        C  0.15019392  0.02373616  0.72906047     0.00200
C467        C  0.17771184  0.02126649  0.73951105    -0.08400
C468        C  0.18869774  0.04426502  0.75382036    -0.05800
C469        C  0.17310215  0.06952667  0.75797985     0.00200
C470        C  0.14644482  0.07304280  0.74569876    -0.08300
C471        C  0.12952852  0.10060507  0.74855423     0.62100
H472        H  0.10430189  0.53972894  0.74468233     0.12800
H473        H  0.20925248  0.04216610  0.76301215     0.12800
C474        C  0.19457478  0.99362444  0.73715666     0.62300
F475        F  0.10376132  0.09911435  0.73579713    -0.22800
F476        F  0.14449638  0.12299593  0.73779772    -0.20200
F477        F  0.12444601  0.10623518  0.77481181    -0.19800
F478        F  0.22159115  0.99627933  0.74721198    -0.19900
F479        F  0.19682715  0.98575925  0.71105048    -0.20200
F480        F  0.18106632  0.97229118  0.75087682    -0.22900
C481        C  0.19953414  0.36269215  0.76377336    -0.05700
C482        C  0.21064310  0.37454856  0.78697661     0.00200
C483        C  0.19571043  0.39751139  0.79935382    -0.08400
C484        C  0.17180006  0.40933281  0.78657126    -0.05800
C485        C  0.16273642  0.39894481  0.76217816     0.00200
C486        C  0.17605393  0.37469090  0.75104467    -0.08300
C487        C  0.16576348  0.36207096  0.72532207     0.62100
H488        H  0.21027828  0.34461937  0.75474548     0.12800
H489        H  0.16103080  0.42789517  0.79471321     0.12800
C490        C  0.20537351  0.41036828  0.82517349     0.62300
F491        F  0.17947245  0.33662654  0.71919467    -0.22800
F492        F  0.17046691  0.38113655  0.70510587    -0.20200
F493        F  0.13716102  0.35664845  0.72717146    -0.19800
F494        F  0.23164837  0.42261022  0.82203547    -0.19900
F495        F  0.20680482  0.38926873  0.84412922    -0.20200
F496        F  0.18694261  0.43141985  0.83411366    -0.22900
C497        C  0.11920676  0.35900815  0.65908932    -0.05700
C498        C  0.10998578  0.38669779  0.65257881     0.00200
C499        C  0.10226534  0.39252132  0.62626945    -0.08400
C500        C  0.10241842  0.36980930  0.60784778    -0.05800
C501        C  0.11129703  0.34181542  0.61444169     0.00200
C502        C  0.12105447  0.33668424  0.64045422    -0.08300
C503        C  0.13366808  0.30809344  0.64879112     0.62100
H504        H  0.12551955  0.35506228  0.67922710     0.12800
H505        H  0.09582550  0.37395786  0.58784759     0.12800
C506        C  0.09347995  0.42240826  0.61776788     0.62300
F507        F  0.14208397  0.30824577  0.67481342    -0.22800
F508        F  0.15729091  0.30197848  0.63370904    -0.20200
F509        F  0.11394498  0.28667471  0.64578129    -0.19800
F510        F  0.11617901  0.44067317  0.62012028    -0.19900
F511        F  0.07149973  0.43228651  0.63333725    -0.20200
F512        F  0.08456395  0.42299646  0.59190241    -0.22900
C513        C  0.98669902  0.99786784  0.73561867    -0.05700
C514        C  0.47372376  0.00492136  0.72232091     0.00200
C515        C  0.48681473  0.49783725  0.69117136    -0.08400
C516        C  0.51378195  0.48492893  0.69187967    -0.05800
C517        C  0.02760372  0.47968619  0.72113599     0.00200
C518        C  0.01444302  0.98676448  0.73705672    -0.08300
C519        C  0.02788133  0.98217166  0.76381235     0.62100
H520        H  0.97461720  0.00105103  0.75343838     0.12800
H521        H  0.52503002  0.48103536  0.67369861     0.12800
C522        C  0.47521277  0.50808678  0.66499121     0.62300
F523        F  0.01098896  0.99265676  0.78391826    -0.22800
F524        F  0.05341443  0.99632470  0.76501512    -0.20200
F525        F  0.03222441  0.95326971  0.76814434    -0.19800
F526        F  0.46518714  0.53590049  0.66736853    -0.19900
F527        F  0.45363103  0.49039381  0.65688158    -0.20200
F528        F  0.49576735  0.50792117  0.64563933    -0.22900
C529        C  0.32057637  0.30070023  0.53250829    -0.05700
C530        C  0.33342639  0.31398818  0.51103504     0.00200
C531        C  0.36026862  0.30462029  0.50239866    -0.08400
C532        C  0.37255724  0.28047701  0.51426356    -0.05800
C533        C  0.35897919  0.26570156  0.53465734     0.00200
C534        C  0.33313773  0.27676381  0.54487307    -0.08300
C535        C  0.31848858  0.26311772  0.56812703     0.62100
H536        H  0.30007487  0.30860677  0.53885911     0.12800
H537        H  0.39262472  0.27239258  0.50701013     0.12800
C538        C  0.37552439  0.31998951  0.48039502     0.62300
F539        F  0.29359878  0.27724178  0.57456103    -0.22800
F540        F  0.33605413  0.26414186  0.58978875    -0.20200
F541        F  0.31202098  0.23495000  0.56244667    -0.19800
F542        F  0.37716541  0.34886584  0.48626391    -0.19900
F543        F  0.36096502  0.31655606  0.45709614    -0.20200
F544        F  0.40274227  0.30960443  0.47688817    -0.22900
C545        C  0.18940038  0.35515314  0.48308936    -0.05700
C546        C  0.21172682  0.33663480  0.47613992     0.00200
C547        C  0.20859767  0.30677000  0.47927379    -0.08400
C548        C  0.18448691  0.29671613  0.49235993    -0.05800
C549        C  0.16317979  0.31547765  0.50125835     0.00200
C550        C  0.16466235  0.34491333  0.49508923    -0.08300
C551        C  0.14093172  0.36547624  0.50226305     0.62100
H552        H  0.19210788  0.37793352  0.48015640     0.12800
H553        H  0.18264854  0.27413813  0.49682980     0.12800
C554        C  0.23124136  0.28583690  0.47010403     0.62300
F555        F  0.14660369  0.39314499  0.49425914    -0.22800
F556        F  0.13696020  0.36573444  0.52915408    -0.20200
F557        F  0.11629741  0.35688855  0.49010622    -0.19800
F558        F  0.25622123  0.29087345  0.48330788    -0.19900
F559        F  0.23557626  0.28915768  0.44344697    -0.20200
F560        F  0.22361133  0.25769846  0.47449486    -0.22900
C561        C  0.14182525  0.15328011  0.52159648    -0.05700
C562        C  0.17133666  0.15183012  0.52037922     0.00200
C563        C  0.18766161  0.17313264  0.53297584    -0.08400
C564        C  0.17371556  0.19723164  0.54368387    -0.05800
C565        C  0.14427185  0.20015178  0.54219573     0.00200
C566        C  0.12789154  0.17724063  0.53242889    -0.08300
C567        C  0.09584443  0.17820202  0.53336328     0.62100
H568        H  0.12974429  0.13641702  0.51237721     0.12800
H569        H  0.18580736  0.21470339  0.55186375     0.12800
C570        C  0.21952696  0.17015306  0.53536468     0.62300
F571        F  0.08557654  0.19833657  0.51590781    -0.22800
F572        F  0.08701992  0.18528014  0.55846621    -0.20200
F573        F  0.08429564  0.15198976  0.52688001    -0.19800
F574        F  0.23210166  0.17220465  0.51097288    -0.19900
F575        F  0.22618499  0.14383018  0.54621282    -0.20200
F576        F  0.23075646  0.19119591  0.55136473    -0.22900
C577        C  0.29356256  0.14928314  0.47791877    -0.05700
C578        C  0.28728471  0.12054910  0.48325127     0.00200
C579        C  0.30707462  0.10352254  0.49740734    -0.08400
C580        C  0.33148881  0.11656965  0.50749531    -0.05800
C581        C  0.33603563  0.14593507  0.50453976     0.00200
C582        C  0.31742601  0.16248646  0.48893805    -0.08300
C583        C  0.32210869  0.19431949  0.48518384     0.62100
H584        H  0.27844320  0.16194546  0.46699086     0.12800
H585        H  0.34605400  0.10439954  0.51946881     0.12800
C586        C  0.30203834  0.07204786  0.50302804     0.62300
F587        F  0.30388966  0.20580648  0.46669598    -0.22800
F588        F  0.34949274  0.19898880  0.47683254    -0.20200
F589        F  0.31770109  0.20854169  0.50868553    -0.19800
F590        F  0.29301799  0.05820830  0.48053237    -0.19900
F591        F  0.28182760  0.06941206  0.52245558    -0.20200
F592        F  0.32642942  0.05841430  0.51154761    -0.22900
C593        C  0.24521533  0.99953968  0.44510582    -0.05700
C594        C  0.23056134  0.00817908  0.46789654     0.00200
C595        C  0.23530500  0.49390460  0.49030636    -0.08400
C596        C  0.24800703  0.46638645  0.48954741    -0.05800
C597        C  0.26264414  0.45634447  0.46732167     0.00200
C598        C  0.26579756  0.47458976  0.44541052    -0.08300
C599        C  0.27596004  0.96593285  0.41842543     0.62100
H600        H  0.24574874  0.01389265  0.42848727     0.12800
H601        H  0.24595093  0.45208480  0.50610429     0.12800
C602        C  0.21918054  0.50314668  0.51474910     0.62300
F603        F  0.27757932  0.98909535  0.40161698    -0.22800
F604        F  0.26670751  0.44530557  0.40730101    -0.20200
F605        F  0.30796415  0.45359820  0.42816649    -0.19800
F606        F  0.19138050  0.50920402  0.50833826    -0.19900
F607        F  0.23156615  0.52715138  0.52559005    -0.20200
F608        F  0.21907212  0.48199960  0.53373184    -0.22900
C609        C  0.11567300  0.16464740  0.25982020    -0.05700
C610        C  0.08623831  0.16312993  0.25768791     0.00200
C611        C  0.07158449  0.18357391  0.24222568    -0.08400
C612        C  0.08686536  0.20607304  0.23072667    -0.05800
C613        C  0.11600613  0.20911194  0.23487138     0.00200
C614        C  0.13093637  0.18737270  0.24869237    -0.08300
C615        C  0.16267025  0.18843243  0.25265311     0.62100
H616        H  0.12653303  0.14878904  0.27176107     0.12800
H617        H  0.07574324  0.22262456  0.21988773     0.12800
C618        C  0.03987964  0.18184980  0.23830026     0.62300
F619        F  0.17349936  0.16180525  0.25936221    -0.22800
F620        F  0.16890713  0.20746775  0.27261374    -0.20200
F621        F  0.17592390  0.19695314  0.22979944    -0.19800
F622        F  0.02618224  0.18633096  0.26192443    -0.19900
F623        F  0.03299446  0.15509388  0.22866222    -0.20200
F624        F  0.03016651  0.20217624  0.22066794    -0.22900
C625        C  0.46326388  0.16618500  0.28784227    -0.05700
C626        C  0.46792558  0.13677710  0.28415369     0.00200
C627        C  0.44733519  0.12018036  0.27091720    -0.08400
C628        C  0.42384857  0.13419129  0.25974306    -0.05800
C629        C  0.42081082  0.16396966  0.26115286     0.00200
C630        C  0.44010455  0.18024194  0.27616317    -0.08300
C631        C  0.43646184  0.21239720  0.27930176     0.62100
H632        H  0.47895821  0.17841245  0.29839944     0.12800
H633        H  0.40875961  0.12220288  0.24819441     0.12800
C634        C  0.45039888  0.08792975  0.26799857     0.62300
F635        F  0.45662205  0.22393461  0.29581349    -0.22800
F636        F  0.41008383  0.21842327  0.28971897    -0.20200
F637        F  0.43889490  0.22559215  0.25523177    -0.19800
F638        F  0.42548390  0.07556201  0.25966793    -0.19900
F639        F  0.45757288  0.07587590  0.29188208    -0.20200
F640        F  0.47109734  0.08149152  0.24971274    -0.22900
C641        C  0.11932877  0.10910425  0.41422939    -0.05700
C642        C  0.14698754  0.10062645  0.40759832     0.00200
C643        C  0.15311420  0.09341480  0.38114518    -0.08400
C644        C  0.13139619  0.09545183  0.36225502    -0.05800
C645        C  0.10374249  0.10447638  0.36866879     0.00200
C646        C  0.09757800  0.11138186  0.39532241    -0.08300
C647        C  0.06828923  0.12090180  0.40410752     0.62100
H648        H  0.11495169  0.11432741  0.43457191     0.12800
H649        H  0.13609940  0.09016082  0.34199999     0.12800
C650        C  0.18227730  0.08299562  0.37285200     0.62300
F651        F  0.06669189  0.12463947  0.43103680    -0.22800
F652        F  0.04865633  0.10046954  0.39715277    -0.20200
F653        F  0.06141407  0.14676272  0.39249313    -0.19800
F654        F  0.19108539  0.06078521  0.38888127    -0.19900
F655        F  0.20121594  0.10528360  0.37462489    -0.20200
F656        F  0.18253888  0.07300748  0.34724290    -0.22900
C657        C  0.06525788  0.35870876  0.29652311    -0.05700
C658        C  0.04047863  0.34243519  0.29677057     0.00200
C659        C  0.04081424  0.31439010  0.28633299    -0.08400
C660        C  0.06561879  0.30418774  0.27437293    -0.05800
C661        C  0.08978211  0.32121211  0.27215528     0.00200
C662        C  0.09025563  0.34843599  0.28450735    -0.08300
C663        C  0.11648309  0.36684729  0.28398467     0.62100
H664        H  0.06441741  0.38035282  0.30474631     0.12800
H665        H  0.06577087  0.28309135  0.26507116     0.12800
C666        C  0.01442670  0.29616390  0.28632217     0.62300
F667        F  0.11179592  0.39330272  0.29559580    -0.22800
F668        F  0.12496737  0.37139530  0.25838282    -0.20200
F669        F  0.13798768  0.35317018  0.29751570    -0.19800
F670        F  0.50208243  0.30097230  0.30490705    -0.19900
F671        F  0.52598470  0.30935344  0.34245309    -0.20200
F672        F  0.01979729  0.26872710  0.27709996    -0.22900
C673        C  0.43771147  0.31675285  0.24283614    -0.05700
C674        C  0.42378870  0.32810849  0.26489848     0.00200
C675        C  0.39718354  0.31749405  0.27228324    -0.08400
C676        C  0.38566993  0.29484019  0.25787687    -0.05800
C677        C  0.40008923  0.28209088  0.23662855     0.00200
C678        C  0.42626866  0.29373986  0.22835232    -0.08300
C679        C  0.44249919  0.28159933  0.20505275     0.62100
H680        H  0.45816211  0.32535593  0.23770445     0.12800
H681        H  0.36552339  0.28618460  0.26386555     0.12800
C682        C  0.38145647  0.32964631  0.29586641     0.62300
F683        F  0.46736452  0.29619631  0.20063187    -0.22800
F684        F  0.42617562  0.28378060  0.18264059    -0.20200
F685        F  0.44937379  0.25317693  0.20940538    -0.19800
F686        F  0.37847360  0.35897385  0.29322057    -0.19900
F687        F  0.39641867  0.32375189  0.31854579    -0.20200
F688        F  0.35476246  0.31810668  0.29840194    -0.22900
C689        C  0.37234732  0.38126684  0.36407975    -0.05700
C690        C  0.40038763  0.38108190  0.37330357     0.00200
C691        C  0.40508267  0.37963183  0.40080077    -0.08400
C692        C  0.38158875  0.37783859  0.41781318    -0.05800
C693        C  0.35358599  0.37749358  0.40853674     0.00200
C694        C  0.34885474  0.37952405  0.38108595    -0.08300
C695        C  0.31925012  0.38056102  0.36962733     0.62100
H696        H  0.36889015  0.38250869  0.34309620     0.12800
H697        H  0.38502189  0.37642723  0.43875974     0.12800
C698        C  0.43458858  0.38069791  0.41240141     0.62300
F699        F  0.31950900  0.38583722  0.34290583    -0.22800
F700        F  0.30374028  0.40222580  0.38152990    -0.20200
F701        F  0.30606992  0.35462352  0.37356476    -0.19800
F702        F  0.44865090  0.40438314  0.40296228    -0.19900
F703        F  0.44938998  0.35608361  0.40573766    -0.20200
F704        F  0.43403963  0.38269123  0.43952022    -0.22900
C705        C  0.51057441  0.47633435  0.33189586    -0.05700
C706        C  0.49142469  0.46824815  0.31209402     0.00200
C707        C  0.99274568  0.48137598  0.28202660    -0.08400
C708        C  0.00597689  0.50839804  0.28201220    -0.05800
C709        C  0.01705069  0.02298105  0.30870079     0.00200
C710        C  0.52351116  0.00253909  0.32344649    -0.08300
C711        C  0.54500603  0.00988123  0.34451645     0.62100
H712        H  0.51479047  0.46156202  0.34776631     0.12800
H713        H  0.00387516  0.52241212  0.26521407     0.12800
C714        C  0.97716016  0.47165574  0.25754994     0.62300
F715        F  0.55000142  0.98713171  0.36128314    -0.22800
F716        F  0.53534273  0.03269952  0.35944645    -0.20200
F717        F  0.57037063  0.01704766  0.33286496    -0.19800
F718        F  0.94896980  0.46728303  0.26327503    -0.19900
F719        F  0.98921601  0.44653018  0.24819623    -0.20200
F720        F  0.97844045  0.49173714  0.23766156    -0.22900
In721      In  0.46367056  0.88385145  0.31120490     1.36900
C722        C  0.01578715  0.85998732  0.30629656     0.77600
O723        O  0.45026283  0.83949878  0.30413123    -0.60800
O724        O  0.43872823  0.87050136  0.27539703    -0.51700
C725        C  0.42549528  0.88496767  0.34995562     0.70300
O726        O  0.45052562  0.87590702  0.35320567    -0.46600
C727        C  0.47842783  0.93836982  0.30704953     0.75000
O728        O  0.50305624  0.86093263  0.32534243    -0.58400
O729        O  0.46317975  0.92623630  0.28999643    -0.48500
O730        O  0.50092746  0.87540553  0.28570512    -0.54900
C731        C  0.43747438  0.84472682  0.28300215     0.85200
O732        O  0.42068923  0.89434381  0.32714340    -0.56800
O733        O  0.48420981  0.92279651  0.32657437    -0.60100
In734      In  0.04843785  0.60221348  0.30267922     1.36900
C735        C  0.99734063  0.62307103  0.29232324     0.77600
O736        O  0.05924406  0.64643765  0.29156156    -0.60800
O737        O  0.07562916  0.61283593  0.26739230    -0.51700
C738        C  0.08585498  0.60165432  0.34235727     0.70300
O739        O  0.06068384  0.61067530  0.34483300    -0.46600
C740        C  0.03249662  0.54788123  0.30315012     0.75000
O741        O  0.01042894  0.62956971  0.31320883    -0.58400
O742        O  0.04568945  0.55839622  0.28380432    -0.48500
O743        O  0.01023300  0.60569099  0.27748198    -0.54900
C744        C  0.07323286  0.63959001  0.27143048     0.85200
O745        O  0.09152317  0.59288365  0.31942097    -0.56800
O746        O  0.02839597  0.56499061  0.32200551    -0.60100
In747      In  0.21140158  0.59682582  0.46348373     1.36900
C748        C  0.26363649  0.61569332  0.47153874     0.77600
O749        O  0.20319726  0.64060411  0.47842170    -0.60800
O750        O  0.18555866  0.60596620  0.49984829    -0.51700
C751        C  0.17330130  0.59852374  0.42405604     0.70300
O752        O  0.19909444  0.60457261  0.42097078    -0.46600
C753        C  0.22626012  0.54182273  0.46624986     0.75000
O754        O  0.24913807  0.62401642  0.45200593    -0.58400
O755        O  0.21172519  0.55406493  0.48391195    -0.48500
O756        O  0.25145561  0.59782300  0.48600531    -0.54900
C757        C  0.18914608  0.63272655  0.49806147     0.85200
O758        O  0.16720924  0.59171704  0.44731673    -0.56800
O759        O  0.23116195  0.55752739  0.44664261    -0.60100
In760      In  0.29397400  0.87323752  0.46344050     1.36900
C761        C  0.24449373  0.84839672  0.47042585     0.77600
O762        O  0.31178385  0.83064374  0.47281822    -0.60800
O763        O  0.31877566  0.86426569  0.50049452    -0.51700
C764        C  0.33383620  0.87822041  0.42650711     0.70300
O765        O  0.31058164  0.86571789  0.42249140    -0.46600
C766        C  0.27282742  0.92586448  0.46433050     0.75000
O767        O  0.25810133  0.84533143  0.44913885    -0.58400
O768        O  0.28648495  0.91561349  0.48356731    -0.48500
O769        O  0.25607916  0.86407798  0.48736208    -0.54900
C770        C  0.32284584  0.83828622  0.49418669     0.85200
O771        O  0.33630387  0.88846679  0.44937355    -0.56800
O772        O  0.27116336  0.90948406  0.44466498    -0.60100
In773      In  0.11060501  0.94847486  0.70979117     1.36900
C774        C  0.13499966  0.99790185  0.72068247     0.77600
O775        O  0.07394316  0.97165421  0.69251546    -0.60800
O776        O  0.06875584  0.95293582  0.73011142    -0.51700
C777        C  0.10927757  0.91055130  0.67056034     0.70300
O778        O  0.11976651  0.93523504  0.66793811    -0.46600
C779        C  0.14405776  0.91757345  0.73993782     0.75000
O780        O  0.13744747  0.98637773  0.69823119    -0.58400
O781        O  0.11801531  0.92039179  0.74509854    -0.48500
O782        O  0.11974277  0.98459103  0.73669615    -0.54900
C783        C  0.05803563  0.96811942  0.71213558     0.85200
O784        O  0.09860434  0.90602257  0.69286703    -0.56800
O785        O  0.15250860  0.93061564  0.71982293    -0.60100
In786      In  0.38754404  0.52748178  0.71785859     1.36900
C787        C  0.36942505  0.97331342  0.71988850     0.77600
O788        O  0.42488657  0.50885735  0.69715212    -0.60800
O789        O  0.43094930  0.52389013  0.73606241    -0.51700
C790        C  0.38632429  0.56836290  0.68110803     0.70300
O791        O  0.37663282  0.54346977  0.67734437    -0.46600
C792        C  0.35243634  0.55118366  0.75235777     0.75000
O793        O  0.36171114  0.48983244  0.70369612    -0.58400
O794        O  0.37897859  0.55246576  0.75524129    -0.48500
O795        O  0.38380145  0.48686400  0.73998879    -0.54900
C796        C  0.44182063  0.51201672  0.71600967     0.85200
O797        O  0.39665845  0.57190356  0.70367209    -0.56800
O798        O  0.34440457  0.53849575  0.73186700    -0.60100
In799      In  0.39333258  0.68957327  0.55701779     1.36900
C800        C  0.37418099  0.74159757  0.54505938     0.77600
O801        O  0.43062454  0.70994387  0.57605926    -0.60800
O802        O  0.43693396  0.69031643  0.53883228    -0.51700
C803        C  0.38968050  0.65222367  0.59650124     0.70300
O804        O  0.38136109  0.67798259  0.59873350    -0.46600
C805        C  0.35829176  0.66449831  0.52369302     0.75000
O806        O  0.36927546  0.73036206  0.56721759    -0.58400
O807        O  0.38484454  0.66161746  0.52153558    -0.48500
O808        O  0.38912757  0.72618967  0.53004465    -0.54900
C809        C  0.44746342  0.70479569  0.55741040     0.85200
O810        O  0.40043581  0.64624647  0.57447830    -0.56800
O811        O  0.35013958  0.67896911  0.54325980    -0.60100
In812      In  0.11269890  0.77895199  0.55486444     1.36900
C813        C  0.13489076  0.72755843  0.54717156     0.77600
O814        O  0.07739731  0.75547261  0.57399195    -0.60800
O815        O  0.06930833  0.77536807  0.53732980    -0.51700
C816        C  0.11254577  0.81873746  0.59271835     0.70300
O817        O  0.12282396  0.79389600  0.59582776    -0.46600
C818        C  0.14773463  0.80259605  0.52075426     0.75000
O819        O  0.14042888  0.74205169  0.56759379    -0.58400
O820        O  0.12122281  0.80364718  0.51730409    -0.48500
O821        O  0.11793634  0.73929700  0.53137453    -0.54900
C822        C  0.06012264  0.75941142  0.55543535     0.85200
O823        O  0.10212432  0.82281329  0.57020340    -0.56800
O824        O  0.15543929  0.79058086  0.54170578    -0.60100
In825      In  0.45894385  0.86129640  0.95686321     1.36900
C826        C  0.01263591  0.87378618  0.96901257     0.77600
O827        O  0.44810487  0.90607081  0.96856753    -0.60800
O828        O  0.43148191  0.87223893  0.99178671    -0.51700
C829        C  0.42029879  0.86063135  0.91842046     0.70300
O830        O  0.44521250  0.86959520  0.91482291    -0.46600
C831        C  0.47393403  0.80619884  0.95852233     0.75000
O832        O  0.49835968  0.88577311  0.94533966    -0.58400
O833        O  0.46029974  0.81834086  0.97689495    -0.48500
O834        O  0.49742376  0.86353655  0.98173842    -0.54900
C835        C  0.43330593  0.89895886  0.98803530     0.85200
O836        O  0.41573696  0.85208285  0.94149927    -0.56800
O837        O  0.47804735  0.82211564  0.93888248    -0.60100
In838      In  0.03883591  0.63297075  0.96457558     1.36900
C839        C  0.98684631  0.61399708  0.97392250     0.77600
O840        O  0.05149662  0.58943609  0.97749378    -0.60800
O841        O  0.06549795  0.62484812  0.00057206    -0.51700
C842        C  0.07780698  0.63063909  0.92650047     0.70300
O843        O  0.05371779  0.61926474  0.92430287    -0.46600
C844        C  0.02341031  0.68763025  0.96282693     0.75000
O845        O  0.99904495  0.60979817  0.95205312    -0.58400
O846        O  0.03594733  0.67705828  0.98255615    -0.48500
O847        O  0.00130038  0.62792920  0.99028638    -0.54900
C848        C  0.06529720  0.59797518  0.99712536     0.85200
O849        O  0.08158154  0.64336464  0.94810960    -0.56800
O850        O  0.01989159  0.67040838  0.94402814    -0.60100
In851      In  0.29016002  0.84682027  0.80378280     1.36900
C852        C  0.23901739  0.86604507  0.79151416     0.77600
O853        O  0.30010542  0.88975096  0.78820088    -0.60800
O854        O  0.31623651  0.85347755  0.76723367    -0.51700
C855        C  0.32886059  0.85224972  0.84174057     0.70300
O856        O  0.30367373  0.86123017  0.84430892    -0.46600
C857        C  0.27383820  0.79267867  0.80724738     0.75000
O858        O  0.25050228  0.87215884  0.81330436    -0.58400
O859        O  0.28842000  0.80168243  0.78815385    -0.48500
O860        O  0.25361002  0.84960015  0.77712378    -0.54900
C861        C  0.31376666  0.88050404  0.76863456     0.85200
O862        O  0.33370704  0.84015411  0.81996364    -0.56800
O863        O  0.26961320  0.81099541  0.82508498    -0.60100
In864      In  0.20649829  0.62568252  0.80908483     1.36900
C865        C  0.25876589  0.60505878  0.80304722     0.77600
O866        O  0.19774962  0.58239890  0.79294346    -0.60800
O867        O  0.17821977  0.61802137  0.77407783    -0.51700
C868        C  0.16789373  0.62596222  0.84789597     0.70300
O869        O  0.19302894  0.61720909  0.85118028    -0.46600
C870        C  0.22190333  0.68023240  0.80646783     0.75000
O871        O  0.24350964  0.59789306  0.82239184    -0.58400
O872        O  0.21047058  0.66745621  0.78737566    -0.48500
O873        O  0.24730354  0.62272938  0.78770732    -0.54900
C874        C  0.18164641  0.59116099  0.77495628     0.85200
O875        O  0.16287673  0.63423982  0.82481440    -0.56800
O876        O  0.22364056  0.66529688  0.82703935    -0.60100
In877      In  0.35619744  0.53884700  0.05380692     1.36900
C878        C  0.37660217  0.99201306  0.03973037     0.77600
O879        O  0.32109668  0.51245642  0.06995086    -0.60800
O880        O  0.31201068  0.53907284  0.03720743    -0.51700
C881        C  0.35758714  0.57509054  0.09444634     0.70300
O882        O  0.36820564  0.55017045  0.09536497    -0.46600
C883        C  0.39051760  0.56892206  0.02376725     0.75000
O884        O  0.38309709  0.50036319  0.06364705    -0.58400
O885        O  0.36453294  0.56662495  0.01822049    -0.48500
O886        O  0.36432571  0.50353297  0.02561427    -0.54900
C887        C  0.30310031  0.52048107  0.05316754     0.85200
O888        O  0.34496841  0.58044883  0.07315956    -0.56800
O889        O  0.39841329  0.55561541  0.04395959    -0.60100
In890      In  0.14324921  0.94526595  0.05296239     1.36900
C891        C  0.12057784  0.99672269  0.04403597     0.77600
O892        O  0.17911915  0.96652810  0.07340480    -0.60800
O893        O  0.18614632  0.95130544  0.03453490    -0.51700
C894        C  0.14388168  0.90646579  0.09153836     0.70300
O895        O  0.13289607  0.93117762  0.09401627    -0.46600
C896        C  0.10954040  0.91892926  0.01933232     0.75000
O897        O  0.11534512  0.98295432  0.06487558    -0.58400
O898        O  0.13613114  0.91844720  0.01639660    -0.48500
O899        O  0.13762422  0.98421385  0.02871212    -0.54900
C900        C  0.19584036  0.96473757  0.05417629     0.85200
O901        O  0.15487799  0.90199647  0.06930052    -0.56800
O902        O  0.10081919  0.93176050  0.03960483    -0.60100
In903      In  0.36288848  0.70032872  0.21471469     1.36900
C904        C  0.38340586  0.75019762  0.22981364     0.77600
O905        O  0.32762504  0.72413837  0.19594876    -0.60800
O906        O  0.31934318  0.70331845  0.23227812    -0.51700
C907        C  0.36246510  0.66324408  0.17527489     0.70300
O908        O  0.37226020  0.68828052  0.17283553    -0.46600
C909        C  0.39956421  0.67387700  0.24528125     0.75000
O910        O  0.38821433  0.74035025  0.20695776    -0.58400
O911        O  0.37319047  0.67243451  0.24958401    -0.48500
O912        O  0.36735498  0.73482273  0.24353236    -0.54900
C913        C  0.31020076  0.71950142  0.21415498     0.85200
O914        O  0.35284364  0.65756625  0.19780018    -0.56800
O915        O  0.40650252  0.68729203  0.22483317    -0.60100
In916      In  0.14625003  0.78880962  0.21909069     1.36900
C917        C  0.12766642  0.73573871  0.22506024     0.77600
O918        O  0.18440122  0.77102705  0.20027271    -0.60800
O919        O  0.18902504  0.78809166  0.23863698    -0.51700
C920        C  0.14368449  0.82639756  0.17942879     0.70300
O921        O  0.13670598  0.80046422  0.17686207    -0.46600
C922        C  0.11142601  0.81190035  0.25426375     0.75000
O923        O  0.11999881  0.75136649  0.20604531    -0.58400
O924        O  0.13788039  0.81517682  0.25576040    -0.48500
O925        O  0.14550021  0.74693015  0.24020083    -0.54900
C926        C  0.20055582  0.77507332  0.21958413     0.85200
O927        O  0.15179519  0.83276759  0.20224632    -0.56800
O928        O  0.10336630  0.79746120  0.23477102    -0.60100
C929        C  0.27247756  0.74401140  0.23950801    -0.05700
C930        C  0.28211773  0.73376476  0.21510564     0.00200
C931        C  0.26566529  0.73888212  0.19234566    -0.08400
C932        C  0.24027116  0.75424601  0.19490471    -0.05800
C933        C  0.22999493  0.76370282  0.21932594     0.00200
C934        C  0.24662873  0.75901528  0.24214166    -0.08300
C935        C  0.23729856  0.76927141  0.26913335     0.62100
H936        H  0.28558448  0.74027969  0.25659170     0.12800
H937        H  0.22768351  0.75829609  0.17756488     0.12800
C938        C  0.27359234  0.72665046  0.16565459     0.62300
F939        F  0.25715214  0.76295082  0.28825115    -0.22800
F940        F  0.21232798  0.75613201  0.27608048    -0.20200
F941        F  0.23343078  0.79866059  0.26890440    -0.19800
F942        F  0.27778820  0.69742463  0.16783482    -0.19900
F943        F  0.29784983  0.73939768  0.15641368    -0.20200
F944        F  0.25258296  0.73117024  0.14717058    -0.22900
C945        C  0.13931327  0.89533875  0.13889826    -0.05700
C946        C  0.14396934  0.88498378  0.11333084     0.00200
C947        C  0.14754301  0.85492748  0.10954477    -0.08400
C948        C  0.14728570  0.83675514  0.13167423    -0.05800
C949        C  0.14312846  0.84729225  0.15725732     0.00200
C950        C  0.13839378  0.87712217  0.16086557    -0.08300
C951        C  0.13094226  0.88977006  0.18748985     0.62100
H952        H  0.13630980  0.91813517  0.14162636     0.12800
H953        H  0.15058940  0.81397375  0.12915806     0.12800
C954        C  0.15083693  0.84166860  0.08242449     0.62300
F955        F  0.12341935  0.91842073  0.18582782    -0.22800
F956        F  0.15383952  0.88766779  0.20420879    -0.20200
F957        F  0.10821867  0.87524643  0.19790875    -0.19800
F958        F  0.17609936  0.85008066  0.07135852    -0.19900
F959        F  0.12860583  0.85019771  0.06658177    -0.20200
F960        F  0.15087363  0.81202771  0.08329188    -0.22900
C961        C  0.37069541  0.61353332  0.16014593    -0.05700
C962        C  0.36248365  0.64161459  0.15386532     0.00200
C963        C  0.35346409  0.64787135  0.12804212    -0.08400
C964        C  0.35196187  0.62538683  0.10963556    -0.05800
C965        C  0.36004800  0.59707278  0.11578468     0.00200
C966        C  0.37051587  0.59121977  0.14142538    -0.08300
C967        C  0.38191308  0.56195078  0.14918814     0.62100
H968        H  0.37784985  0.60934729  0.17999949     0.12800
H969        H  0.34470680  0.63002524  0.08990542     0.12800
C970        C  0.34486938  0.67799068  0.12007209     0.62300
F971        F  0.39061637  0.56124688  0.17512395    -0.22800
F972        F  0.40504141  0.55505290  0.13373224    -0.20200
F973        F  0.36120842  0.54152572  0.14606458    -0.19800
F974        F  0.36813333  0.69565491  0.12092796    -0.19900
F975        F  0.32441019  0.68837940  0.13700452    -0.20200
F976        F  0.33395043  0.67888337  0.09488839    -0.22900
C977        C  0.27211495  0.47830964  0.05737780    -0.05700
C978        C  0.27441401  0.50775428  0.05202432     0.00200
C979        C  0.25649321  0.01035854  0.03014339    -0.08400
C980        C  0.23144835  0.99421362  0.03143862    -0.05800
C981        C  0.22372648  0.97910685  0.05405866     0.00200
C982        C  0.24580594  0.46444142  0.05784337    -0.08300
C983        C  0.24412876  0.43293553  0.06480936     0.62100
H984        H  0.29122402  0.46619779  0.06140766     0.12800
H985        H  0.21718833  0.99376431  0.01483722     0.12800
C986        C  0.26300854  0.02663809  0.00512583     0.62300
F987        F  0.27058541  0.42103408  0.06920515    -0.22800
F988        F  0.23159901  0.41793593  0.04455719    -0.20200
F989        F  0.22821060  0.42976135  0.08737613    -0.19800
F990        F  0.28772011  0.01615389  0.99407359    -0.19900
F991        F  0.26578884  0.05547894  0.01070244    -0.20200
F992        F  0.24176221  0.02395982  0.98663611    -0.22900
C993        C  0.25324017  0.75146355  0.78350662    -0.05700
C994        C  0.26091620  0.76372832  0.80767563     0.00200
C995        C  0.25452628  0.74896170  0.83121442    -0.08400
C996        C  0.24106748  0.72231858  0.82954317    -0.05800
C997        C  0.23359013  0.70979881  0.80542975     0.00200
C998        C  0.23932510  0.72491195  0.78184210    -0.08300
C999        C  0.23118097  0.71339003  0.75497899     0.62100
H1000       H  0.25784088  0.76322735  0.76577643     0.12800
H1001       H  0.23627151  0.71091861  0.84741190     0.12800
C1002       C  0.26240693  0.76057897  0.85811362     0.62300
F1003       F  0.23791503  0.73224325  0.73504783    -0.22800
F1004       F  0.20235097  0.70898396  0.75396090    -0.20200
F1005       F  0.24535094  0.68790215  0.75014769    -0.19800
F1006       F  0.24651110  0.78480296  0.86370402    -0.19900
F1007       F  0.29082417  0.76717684  0.85861494    -0.20200
F1008       F  0.25746291  0.74090815  0.87784329    -0.22900
C1009       C  0.44795545  0.62106253  0.00669343    -0.05700
C1010       C  0.45885237  0.60897884  0.98335163     0.00200
C1011       C  0.44376330  0.58635266  0.97110217    -0.08400
C1012       C  0.41986908  0.57508646  0.98398007    -0.05800
C1013       C  0.41084275  0.58571130  0.00835623     0.00200
C1014       C  0.42427919  0.60970820  0.01947643    -0.08300
C1015       C  0.41372605  0.62299803  0.04499037     0.62100
H1016       H  0.45883141  0.63886511  0.01559746     0.12800
H1017       H  0.40905011  0.55677920  0.97591061     0.12800
C1018       C  0.45322340  0.57324247  0.94524277     0.62300
F1019       F  0.42773221  0.64807266  0.05098845    -0.22800
F1020       F  0.41777350  0.60412917  0.06552413    -0.20200
F1021       F  0.38522708  0.62935891  0.04284333    -0.19800
F1022       F  0.47957326  0.56063704  0.94817704    -0.19900
F1023       F  0.96219922  0.57321238  0.92858508    -0.20200
F1024       F  0.43479225  0.55241629  0.93654888    -0.22900
C1025       C  0.06461267  0.56157185  0.03208769    -0.05700
C1026       C  0.08037469  0.57747484  0.01405226     0.00200
C1027       C  0.10896404  0.57033930  0.00936508    -0.08400
C1028       C  0.12071125  0.54660472  0.02235189    -0.05800
C1029       C  0.10461705  0.52955498  0.03932800     0.00200
C1030       C  0.07627751  0.53755650  0.04499234    -0.08300
C1031       C  0.05803185  0.52021818  0.06348170     0.62100
H1032       H  0.04262505  0.56741619  0.03506188     0.12800
H1033       H  0.14237064  0.54028083  0.01830289     0.12800
C1034       C  0.12640600  0.58682855  0.98958660     0.62300
F1035       F  0.03068801  0.53087971  0.06485164    -0.22800
F1036       F  0.06943724  0.52099711  0.08843607    -0.20200
F1037       F  0.05666806  0.49211392  0.05503748    -0.19800
F1038       F  0.12753414  0.61531799  0.99693075    -0.19900
F1039       F  0.11419882  0.58476671  0.96501050    -0.20200
F1040       F  0.15380671  0.57637751  0.98784152    -0.22900
C1041       C  0.12872246  0.62969560  0.91406827    -0.05700
C1042       C  0.10033532  0.62904002  0.90590512     0.00200
C1043       C  0.09440978  0.62809936  0.87863714    -0.08400
C1044       C  0.11710927  0.62655168  0.86068116    -0.05800
C1045       C  0.14554933  0.62657672  0.86880814     0.00200
C1046       C  0.15146713  0.62875673  0.89608077    -0.08300
C1047       C  0.18148937  0.63122698  0.90627086     0.62100
H1048       H  0.13302230  0.63096907  0.93492073     0.12800
H1049       H  0.11267712  0.62539796  0.83986234     0.12800
C1050       C  0.06434677  0.63004381  0.86835769     0.62300
F1051       F  0.18220459  0.63646850  0.93302253    -0.22800
F1052       F  0.19493237  0.65366016  0.89390331    -0.20200
F1053       F  0.19614602  0.60600717  0.90152906    -0.19800
F1054       F  0.05076597  0.65357986  0.87929275    -0.19900
F1055       F  0.04985147  0.60545094  0.87471910    -0.20200
F1056       F  0.06356741  0.63309411  0.84135470    -0.22900
C1057       C  0.38922546  0.92177919  0.00402841    -0.05700
C1058       C  0.41881509  0.92052126  0.00460970     0.00200
C1059       C  0.43396433  0.94100727  0.01937737    -0.08400
C1060       C  0.41882338  0.96229049  0.03315387    -0.05800
C1061       C  0.38936898  0.96464394  0.03123941     0.00200
C1062       C  0.37408794  0.94368783  0.01700357    -0.08300
C1063       C  0.34210981  0.94390245  0.01423556     0.62100
H1064       H  0.37787365  0.90610955  0.99246420     0.12800
H1065       H  0.43010520  0.97877874  0.04372584     0.12800
C1066       C  0.46601350  0.94119981  0.01959107     0.62300
F1067       F  0.33499774  0.95206485  0.98900275    -0.22800
F1068       F  0.32881845  0.96214024  0.03183834    -0.20200
F1069       F  0.33185233  0.91669331  0.01866798    -0.19800
F1070       F  0.47590431  0.94789519  0.99483993    -0.19900
F1071       F  0.47628861  0.91455846  0.02677521    -0.20200
F1072       F  0.47647463  0.96122418  0.03708229    -0.22900
C1073       C  0.08404063  0.87679038  0.00228493    -0.05700
C1074       C  0.08941509  0.90615930  0.00067255     0.00200
C1075       C  0.07245110  0.92366257  0.98429483    -0.08400
C1076       C  0.04860836  0.91171266  0.97211360    -0.05800
C1077       C  0.04142803  0.88302399  0.97611941     0.00200
C1078       C  0.06032472  0.86474488  0.98992853    -0.08300
C1079       C  0.05520690  0.83277891  0.99208525     0.62100
H1080       H  0.09751841  0.86363548  0.01464789     0.12800
H1081       H  0.03423387  0.92527398  0.96102652     0.12800
C1082       C  0.07908837  0.95508823  0.98060465     0.62300
F1083       F  0.04701129  0.82186566  0.96800177    -0.22800
F1084       F  0.53714537  0.83368877  0.00920338    -0.20200
F1085       F  0.58139654  0.82588043  0.99482300    -0.19800
F1086       F  0.10701145  0.95798558  0.97313445    -0.19900
F1087       F  0.07465805  0.96971823  0.00385270    -0.20200
F1088       F  0.06228767  0.96748268  0.96145932    -0.22900
C1089       C  0.36933583  0.85991335  0.90670113    -0.05700
C1090       C  0.39756722  0.86007322  0.89793628     0.00200
C1091       C  0.40287962  0.85813874  0.87055121    -0.08400
C1092       C  0.37974267  0.85622026  0.85315295    -0.05800
C1093       C  0.35154569  0.85579924  0.86195453     0.00200
C1094       C  0.34622714  0.85760888  0.88933551    -0.08300
C1095       C  0.31650043  0.85602590  0.90045928     0.62100
H1096       H  0.36542616  0.86143233  0.92760900     0.12800
H1097       H  0.38359542  0.85485115  0.83222614     0.12800
C1098       C  0.43270593  0.85694516  0.85959710     0.62300
F1099       F  0.31648059  0.85508102  0.92762082    -0.22800
F1100       F  0.30340982  0.83153864  0.89140248    -0.20200
F1101       F  0.30106891  0.87987937  0.89292244    -0.19800
F1102       F  0.44747701  0.83451192  0.87096516    -0.19900
F1103       F  0.44631827  0.88241671  0.86475365    -0.20200
F1104       F  0.43295729  0.85270992  0.83268671    -0.22900
C1105       C  0.50278960  0.76726432  0.93848557    -0.05700
C1106       C  0.48578268  0.77636920  0.95970754     0.00200
C1107       C  0.98466444  0.75483279  0.98493837    -0.08400
C1108       C  0.99792302  0.72766197  0.98447022    -0.05800
C1109       C  0.01225260  0.71737181  0.96222096     0.00200
C1110       C  0.51599416  0.74016151  0.93784587    -0.08300
C1111       C  0.53396634  0.73157856  0.91435557     0.62100
H1112       H  0.50569875  0.78160123  0.92207809     0.12800
H1113       H  0.99652950  0.71372681  0.00136477     0.12800
C1114       C  0.96857070  0.76400068  0.00941917     0.62300
F1115       F  0.53738346  0.75400639  0.89696323    -0.22800
F1116       F  0.52123706  0.70939395  0.90097824    -0.20200
F1117       F  0.56048045  0.72289184  0.92269675    -0.19800
F1118       F  0.94057554  0.76923524  0.00314437    -0.19900
F1119       F  0.98045597  0.78843243  0.01992441    -0.20200
F1120       F  0.96914393  0.74311391  0.02863846    -0.22900
C1121       C  0.99022240  0.72568406  0.53386099    -0.05700
C1122       C  0.47655609  0.71656468  0.55675475     0.00200
C1123       C  0.49354778  0.71875439  0.57950716    -0.08400
C1124       C  0.51912930  0.73377681  0.57803471    -0.05800
C1125       C  0.03182777  0.74551008  0.55522120     0.00200
C1126       C  0.01634446  0.73982045  0.53190830    -0.08300
C1127       C  0.02691225  0.74873527  0.50501792     0.62100
H1128       H  0.97789017  0.72182322  0.51635302     0.12800
H1129       H  0.53169038  0.73613923  0.59561982     0.12800
C1130       C  0.48524325  0.70465923  0.60518045     0.62300
F1131       F  0.05366302  0.73760562  0.50063544    -0.22800
F1132       F  0.02761460  0.77827935  0.50360595    -0.20200
F1133       F  0.00960124  0.73902799  0.48505709    -0.19800
F1134       F  0.47657537  0.67687460  0.60055816    -0.19900
F1135       F  0.46354351  0.72001003  0.61689954    -0.20200
F1136       F  0.50765750  0.70345305  0.62260350    -0.22900
C1137       C  0.28787046  0.56182179  0.79545043    -0.05700
C1138       C  0.28651969  0.59180933  0.79670553     0.00200
C1139       C  0.30972511  0.60804671  0.78744240    -0.08400
C1140       C  0.33222762  0.59366366  0.77477006    -0.05800
C1141       C  0.33184892  0.56398933  0.77086082     0.00200
C1142       C  0.31008384  0.54756268  0.78230359    -0.08300
C1143       C  0.30971371  0.51518473  0.77964222     0.62100
H1144       H  0.27013700  0.54970821  0.80277834     0.12800
H1145       H  0.34943726  0.60570519  0.76630714     0.12800
C1146       C  0.31095254  0.64031511  0.79110950     0.62300
F1147       F  0.28982136  0.50303836  0.79601899    -0.22800
F1148       F  0.33588854  0.50386598  0.78613438    -0.20200
F1149       F  0.30324478  0.50772707  0.75409256    -0.19800
F1150       F  0.30710917  0.64698524  0.81733846    -0.19900
F1151       F  0.29024643  0.65374761  0.77644219    -0.20200
F1152       F  0.33675847  0.65117362  0.78333135    -0.22900
C1153       C  0.32629601  0.94442186  0.72466879    -0.05700
C1154       C  0.35589635  0.94554193  0.72550043     0.00200
C1155       C  0.37133264  0.92201883  0.73587443    -0.08400
C1156       C  0.35649942  0.89955451  0.74777224    -0.05800
C1157       C  0.32703211  0.90034523  0.74993613     0.00200
C1158       C  0.31143881  0.92229095  0.73716457    -0.08300
C1159       C  0.27932465  0.92248362  0.73701015     0.62100
H1160       H  0.31483773  0.96220638  0.71606482     0.12800
H1161       H  0.36799346  0.88239435  0.75738211     0.12800
C1162       C  0.40336444  0.92107466  0.73546174     0.62300
F1163       F  0.26848471  0.94409436  0.72132758    -0.22800
F1164       F  0.26903187  0.92666293  0.76211401    -0.20200
F1165       F  0.26965679  0.89661733  0.72742975    -0.19800
F1166       F  0.41391932  0.93889511  0.75474521    -0.19900
F1167       F  0.41321595  0.92975954  0.71121236    -0.20200
F1168       F  0.41355052  0.89365405  0.73997131    -0.22900
C1169       C  0.38080002  0.58227356  0.63440214    -0.05700
C1170       C  0.38608515  0.59103750  0.66033696     0.00200
C1171       C  0.39074518  0.62068818  0.66536401    -0.08400
C1172       C  0.39141125  0.63990798  0.64398628    -0.05800
C1173       C  0.38734338  0.63075485  0.61800785     0.00200
C1174       C  0.38100769  0.60155107  0.61319132    -0.08300
C1175       C  0.37354279  0.59069257  0.58593534     0.62100
H1176       H  0.37681704  0.55986463  0.63069409     0.12800
H1177       H  0.39567526  0.66233167  0.64735370     0.12800
C1178       C  0.39451418  0.63244141  0.69299348     0.62300
F1179       F  0.36340266  0.56298055  0.58653815    -0.22800
F1180       F  0.39722295  0.59082683  0.57006449    -0.20200
F1181       F  0.35274669  0.60794294  0.57506817    -0.19800
F1182       F  0.41940952  0.62209592  0.70368092    -0.19900
F1183       F  0.37193877  0.62446771  0.70852342    -0.20200
F1184       F  0.39572339  0.66205743  0.69331169    -0.22900
C1185       C  0.12686416  0.54337622  0.74413769    -0.05700
C1186       C  0.14429518  0.52259424  0.73221892     0.00200
C1187       C  0.17380399  0.52698866  0.73088854    -0.08400
C1188       C  0.18513986  0.55099003  0.74373747    -0.05800
C1189       C  0.16783744  0.57080943  0.75701543     0.00200
C1190       C  0.13815998  0.56783607  0.75625271    -0.08300
C1191       C  0.11871234  0.58963868  0.76927089     0.62100
H1192       H  0.11406358  0.05098370  0.72349244     0.12800
H1193       H  0.20781365  0.55385253  0.74452843     0.12800
C1194       C  0.19337044  0.50556495  0.71750730     0.62300
F1195       F  0.09055021  0.58246840  0.76653160    -0.22800
F1196       F  0.12256402  0.61615227  0.75787498    -0.20200
F1197       F  0.12469413  0.59141067  0.79578357    -0.19800
F1198       F  0.22127270  0.51413264  0.71840262    -0.19900
F1199       F  0.18588617  0.50273014  0.69140819    -0.20200
F1200       F  0.19146681  0.47927139  0.72976289    -0.22900
C1201       C  0.19963775  0.86389185  0.75990526    -0.05700
C1202       C  0.21131272  0.87740980  0.78211626     0.00200
C1203       C  0.19779176  0.90235271  0.79239701    -0.08400
C1204       C  0.17379312  0.91330233  0.77933024    -0.05800
C1205       C  0.16390082  0.90092631  0.75607581     0.00200
C1206       C  0.17646642  0.87554123  0.74639780    -0.08300
C1207       C  0.16532860  0.86093171  0.72185006     0.62100
H1208       H  0.20956011  0.84455492  0.75241072     0.12800
H1209       H  0.16365090  0.93282963  0.78615441     0.12800
C1210       C  0.20929225  0.91844940  0.81593554     0.62300
F1211       F  0.18026074  0.83613023  0.71591474    -0.22800
F1212       F  0.16732874  0.87902941  0.70051910    -0.20200
F1213       F  0.13735092  0.85381089  0.72570421    -0.19800
F1214       F  0.23641971  0.92758007  0.81068752    -0.19900
F1215       F  0.20949357  0.90079129  0.83766040    -0.20200
F1216       F  0.19306254  0.94238150  0.82199185    -0.22900
C1217       C  0.11467859  0.85947684  0.65827699    -0.05700
C1218       C  0.11037093  0.88782833  0.64995869     0.00200
C1219       C  0.10692546  0.89334902  0.62283712    -0.08400
C1220       C  0.10797437  0.87015392  0.60503122    -0.05800
C1221       C  0.11261536  0.84171515  0.61328513     0.00200
C1222       C  0.11638046  0.83630886  0.64051570    -0.08300
C1223       C  0.12202444  0.80641521  0.65112018     0.62100
H1224       H  0.11712649  0.85564219  0.67902827     0.12800
H1225       H  0.10530945  0.87420085  0.58429173     0.12800
C1226       C  0.10112263  0.92337478  0.61274535     0.62300
F1227       F  0.12347327  0.80607949  0.67826025    -0.22800
F1228       F  0.14757600  0.79623443  0.64158254    -0.20200
F1229       F  0.10055324  0.78823453  0.64363096    -0.19800
F1230       F  0.12450417  0.94034084  0.61681994    -0.19900
F1231       F  0.07811074  0.93509667  0.62578587    -0.20200
F1232       F  0.09518158  0.92350977  0.58614619    -0.22900
C1233       C  0.98425285  0.49303541  0.74428537    -0.05700
C1234       C  0.47164773  0.50150948  0.71504349     0.00200
C1235       C  0.49391937  0.01087890  0.70273199    -0.08400
C1236       C  0.52034374  0.99711543  0.70396844    -0.05800
C1237       C  0.02920781  0.98096969  0.71330664     0.00200
C1238       C  0.01088180  0.47918983  0.74439239    -0.08300
C1239       C  0.02088696  0.46459153  0.76934983     0.62100
H1240       H  0.97045969  0.49150107  0.76116371     0.12800
H1241       H  0.53541772  0.00077627  0.68840826     0.12800
C1242       C  0.48813799  0.03269690  0.68127960     0.62300
F1243       F  0.00228750  0.46897277  0.78998526    -0.22800
F1244       F  0.04675847  0.47552746  0.77679844    -0.20200
F1245       F  0.02330414  0.43540167  0.76521881    -0.19800
F1246       F  0.47881963  0.05810560  0.69248257    -0.19900
F1247       F  0.46785156  0.02265448  0.66418696    -0.20200
F1248       F  0.51217681  0.03852112  0.66682084    -0.22900
C1249       C  0.32863224  0.80893857  0.53430874    -0.05700
C1250       C  0.33933748  0.81779407  0.51002941     0.00200
C1251       C  0.36370790  0.80439675  0.49959130    -0.08400
C1252       C  0.37536133  0.78087185  0.51286416    -0.05800
C1253       C  0.36321667  0.76994362  0.53595730     0.00200
C1254       C  0.34010912  0.78499772  0.54759249    -0.08300
C1255       C  0.32674669  0.77537009  0.57311021     0.62100
H1256       H  0.31006943  0.81987182  0.54195440     0.12800
H1257       H  0.39351687  0.76999204  0.50442476     0.12800
C1258       C  0.37709811  0.81471406  0.47423944     0.62300
F1259       F  0.30521464  0.79367287  0.58109087    -0.22800
F1260       F  0.34688845  0.77482021  0.59275559    -0.20200
F1261       F  0.31545829  0.74836841  0.56994941    -0.19800
F1262       F  0.38147871  0.84390976  0.47569722    -0.19900
F1263       F  0.35956569  0.80885386  0.45325119    -0.20200
F1264       F  0.40292200  0.80153124  0.46954668    -0.22900
C1265       C  0.19285169  0.85059620  0.47758266    -0.05700
C1266       C  0.21771469  0.83398671  0.47646765     0.00200
C1267       C  0.21788225  0.80594917  0.48672341    -0.08400
C1268       C  0.19336779  0.79579501  0.49888793    -0.05800
C1269       C  0.16917874  0.81310164  0.50198787     0.00200
C1270       C  0.16834415  0.84061986  0.49034786    -0.08300
C1271       C  0.14274275  0.86014096  0.49318163     0.62100
H1272       H  0.19346127  0.87221745  0.46997976     0.12800
H1273       H  0.19351980  0.77469053  0.50767073     0.12800
C1274       C  0.24458820  0.78772537  0.48666180     0.62300
F1275       F  0.14640026  0.88588849  0.48025870    -0.22800
F1276       F  0.13799161  0.86598750  0.51945424    -0.20200
F1277       F  0.11923666  0.84704147  0.48265606    -0.19800
F1278       F  0.26520779  0.80103622  0.50139658    -0.19900
F1279       F  0.25414314  0.78419410  0.46120377    -0.20200
F1280       F  0.24012011  0.76086678  0.49724190    -0.22900
C1281       C  0.14760956  0.65266421  0.52091195    -0.05700
C1282       C  0.17676623  0.65375112  0.51645732     0.00200
C1283       C  0.19263180  0.67686192  0.52668547    -0.08400
C1284       C  0.17818204  0.69948548  0.53923630    -0.05800
C1285       C  0.14864304  0.69999606  0.54077346     0.00200
C1286       C  0.13305267  0.67585608  0.53244011    -0.08300
C1287       C  0.10108090  0.67522044  0.53420469     0.62100
H1288       H  0.13594225  0.63470183  0.51309568     0.12800
H1289       H  0.18968222  0.71813322  0.54581535     0.12800
C1290       C  0.22449967  0.67828794  0.52346706     0.62300
F1291       F  0.08961659  0.69280427  0.51517083    -0.22800
F1292       F  0.09227526  0.68453851  0.55869712    -0.20200
F1293       F  0.09081079  0.64785971  0.53034828    -0.19800
F1294       F  0.23117395  0.68425756  0.49766019    -0.19900
F1295       F  0.23674674  0.65243732  0.53052304    -0.20200
F1296       F  0.23607452  0.69947384  0.53908020    -0.22900
C1297       C  0.29593588  0.65668274  0.47757571    -0.05700
C1298       C  0.29184776  0.62697913  0.47857776     0.00200
C1299       C  0.31289466  0.60932249  0.49027915    -0.08400
C1300       C  0.33556208  0.62229019  0.50352902    -0.05800
C1301       C  0.33780303  0.65211437  0.50505644     0.00200
C1302       C  0.31859496  0.66964103  0.49091328    -0.08300
C1303       C  0.32157343  0.70198467  0.49068908     0.62100
H1304       H  0.28004306  0.66986036  0.46819719     0.12800
H1305       H  0.35059865  0.60921070  0.51417291     0.12800
C1306       C  0.31078852  0.57691975  0.49043760     0.62300
F1307       F  0.30357622  0.71466978  0.47266857    -0.22800
F1308       F  0.34895966  0.70915893  0.48406570    -0.20200
F1309       F  0.31529783  0.71301053  0.51523637    -0.19800
F1310       F  0.29934747  0.56702781  0.46715335    -0.19900
F1311       F  0.29399391  0.56846574  0.51117617    -0.20200
F1312       F  0.33719391  0.56432709  0.49321460    -0.22900
C1313       C  0.25349400  0.50201836  0.44623258    -0.05700
C1314       C  0.23793230  0.51201213  0.46798954     0.00200
C1315       C  0.22962595  0.98908027  0.48961677    -0.08400
C1316       C  0.24410823  0.96256635  0.48771798    -0.05800
C1317       C  0.25893598  0.95441677  0.46498121     0.00200
C1318       C  0.25951197  0.97316036  0.44324996    -0.08300
C1319       C  0.28213887  0.46532888  0.42109040     0.62100
H1320       H  0.25572371  0.51581997  0.42935052     0.12800
H1321       H  0.24373408  0.94769871  0.50397261     0.12800
C1322       C  0.21361941  0.99623543  0.51467345     0.62300
F1323       F  0.28731695  0.48810479  0.40449661    -0.22800
F1324       F  0.26284764  0.94391467  0.40511347    -0.20200
F1325       F  0.30326270  0.95775831  0.42479831    -0.19800
F1326       F  0.18548528  0.00139281  0.50891860    -0.19900
F1327       F  0.22515306  0.02013012  0.52646960    -0.20200
F1328       F  0.21479329  0.97404953  0.53262803    -0.22900
C1329       C  0.11493241  0.65978885  0.24876700    -0.05700
C1330       C  0.08600404  0.66174195  0.25457145     0.00200
C1331       C  0.07039324  0.68625377  0.24646965    -0.08400
C1332       C  0.08479289  0.70893191  0.23459682    -0.05800
C1333       C  0.11411839  0.70824071  0.23132481     0.00200
C1334       C  0.12948281  0.68296335  0.23751264    -0.08300
C1335       C  0.16095838  0.68053432  0.23226491     0.62100
H1336       H  0.12644008  0.64068723  0.25473692     0.12800
H1337       H  0.07344233  0.72847301  0.22967603     0.12800
C1338       C  0.03883864  0.68921529  0.25126256     0.62300
F1339       F  0.17092087  0.65292633  0.23628912    -0.22800
F1340       F  0.17554873  0.69867614  0.24878051    -0.20200
F1341       F  0.16647763  0.68782615  0.20648859    -0.19800
F1342       F  0.03392513  0.69449744  0.27757616    -0.19900
F1343       F  0.02525791  0.66439386  0.24379107    -0.20200
F1344       F  0.02718730  0.71163087  0.23707139    -0.22900
C1345       C  0.46380890  0.66544662  0.28905214    -0.05700
C1346       C  0.46793532  0.63572377  0.28811578     0.00200
C1347       C  0.44737180  0.61825630  0.27579079    -0.08400
C1348       C  0.42387473  0.63146069  0.26375120    -0.05800
C1349       C  0.42122692  0.66129888  0.26267813     0.00200
C1350       C  0.44117434  0.67868561  0.27579878    -0.08300
C1351       C  0.43886655  0.71112576  0.27523985     0.62100
H1352       H  0.47965973  0.67841235  0.29862019     0.12800
H1353       H  0.40844012  0.61862849  0.25342811     0.12800
C1354       C  0.45063523  0.58592148  0.27448101     0.62300
F1355       F  0.45899454  0.72392842  0.29097189    -0.22800
F1356       F  0.41250068  0.71955888  0.28417598    -0.20200
F1357       F  0.44265836  0.72088466  0.24990361    -0.19800
F1358       F  0.42597830  0.57291629  0.26628331    -0.19900
F1359       F  0.45741969  0.57523863  0.29899213    -0.20200
F1360       F  0.47175787  0.57870303  0.25686600    -0.22900
C1361       C  0.12344273  0.60631777  0.40953214    -0.05700
C1362       C  0.15152170  0.59955714  0.40262102     0.00200
C1363       C  0.15766080  0.59321271  0.37594533    -0.08400
C1364       C  0.13558818  0.59417445  0.35729295    -0.05800
C1365       C  0.10751117  0.60131643  0.36404397     0.00200
C1366       C  0.10134365  0.60757879  0.39083487    -0.08300
C1367       C  0.07169809  0.61545484  0.39996316     0.62100
H1368       H  0.11895845  0.61100022  0.42996139     0.12800
H1369       H  0.14031548  0.58941487  0.33693710     0.12800
C1370       C  0.18720480  0.58463770  0.36713758     0.62300
F1371       F  0.07044677  0.62010773  0.42678386    -0.22800
F1372       F  0.05334142  0.59347697  0.39401783    -0.20200
F1373       F  0.06283073  0.64038127  0.38777486    -0.19800
F1374       F  0.19674485  0.56165155  0.38183668    -0.19900
F1375       F  0.20529448  0.60746202  0.37030145    -0.20200
F1376       F  0.18794706  0.57660991  0.34096589    -0.22900
C1377       C  0.06647117  0.86293441  0.29516519    -0.05700
C1378       C  0.04278077  0.84577819  0.29960215     0.00200
C1379       C  0.04369815  0.81647276  0.29257602    -0.08400
C1380       C  0.06774861  0.80583180  0.27959775    -0.05800
C1381       C  0.09064444  0.82342783  0.27336596     0.00200
C1382       C  0.09076477  0.85216602  0.28239186    -0.08300
C1383       C  0.11561772  0.87164284  0.27726726     0.62100
H1384       H  0.06518089  0.88557420  0.30072383     0.12800
H1385       H  0.06821849  0.78357277  0.27276842     0.12800
C1386       C  0.01850279  0.79719569  0.29695256     0.62300
F1387       F  0.11094066  0.89900640  0.28694960    -0.22800
F1388       F  0.12039018  0.87367384  0.25060285    -0.20200
F1389       F  0.13949245  0.86063797  0.28931729    -0.19800
F1390       F  0.49704185  0.80755026  0.28168279    -0.19900
F1391       F  0.51332152  0.80106199  0.32285302    -0.20200
F1392       F  0.02400455  0.76926690  0.28915704    -0.22900
C1393       C  0.42611582  0.81877053  0.24171447    -0.05700
C1394       C  0.42201409  0.82211569  0.26884296     0.00200
C1395       C  0.40389420  0.80325644  0.28233825    -0.08400
C1396       C  0.39107007  0.78117528  0.26823484    -0.05800
C1397       C  0.39616023  0.77652782  0.24132775     0.00200
C1398       C  0.41372607  0.79598832  0.22759873    -0.08300
C1399       C  0.41952387  0.79296270  0.19842898     0.62100
H1400       H  0.43995979  0.83363659  0.23185413     0.12800
H1401       H  0.37743951  0.76664842  0.27869330     0.12800
C1402       C  0.39763110  0.80649344  0.31152957     0.62300
F1403       F  0.43600790  0.81503467  0.18903980    -0.22800
F1404       F  0.39427801  0.79338335  0.18477969    -0.20200
F1405       F  0.43375957  0.76752749  0.19351676    -0.19800
F1406       F  0.38900544  0.83425839  0.31687195    -0.19900
F1407       F  0.42149431  0.80003410  0.32604744    -0.20200
F1408       F  0.37639077  0.78838113  0.31971351    -0.22900
C1409       C  0.37462789  0.88363373  0.36170008    -0.05700
C1410       C  0.40281741  0.88385066  0.37042487     0.00200
C1411       C  0.40813164  0.88329891  0.39785762    -0.08400
C1412       C  0.38499366  0.88161727  0.41532943    -0.05800
C1413       C  0.35685406  0.88040385  0.40648168     0.00200
C1414       C  0.35155712  0.88205007  0.37912688    -0.08300
C1415       C  0.32172231  0.88308124  0.36822972     0.62100
H1416       H  0.37068039  0.88437205  0.34075530     0.12800
H1417       H  0.38881103  0.88087772  0.43628381     0.12800
C1418       C  0.43789760  0.88515312  0.40881373     0.62300
F1419       F  0.32139263  0.88920544  0.34166447    -0.22800
F1420       F  0.30624427  0.90421407  0.38094789    -0.20200
F1421       F  0.30890624  0.85688743  0.37174493    -0.19800
F1422       F  0.45141077  0.90870658  0.39842502    -0.19900
F1423       F  0.45291760  0.86054480  0.40254195    -0.20200
F1424       F  0.43794453  0.88803564  0.43586427    -0.22900
C1425       C  0.50993713  0.97598626  0.32394561    -0.05700
C1426       C  0.49029574  0.96778630  0.30462651     0.00200
C1427       C  0.98505660  0.98739773  0.28943491    -0.08400
C1428       C  0.99804787  0.01452900  0.28913091    -0.05800
C1429       C  0.02150553  0.51824447  0.30362198     0.00200
C1430       C  0.52448120  0.50286207  0.33166691    -0.08300
C1431       C  0.54567563  0.50990698  0.35305396     0.62100
H1432       H  0.51483768  0.96128027  0.33970060     0.12800
H1433       H  0.99315395  0.02969240  0.27371514     0.12800
C1434       C  0.96437416  0.97990149  0.26772852     0.62300
F1435       F  0.55039830  0.48692638  0.36962797    -0.22800
F1436       F  0.53584066  0.53258111  0.36806767    -0.20200
F1437       F  0.57121990  0.51715518  0.34178607    -0.19800
F1438       F  0.93847045  0.97301751  0.27848045    -0.19900
F1439       F  0.97473489  0.95698667  0.25328403    -0.20200
F1440       F  0.96006745  0.00247169  0.25060127    -0.22900
In1441     In  0.96366913  0.38136889  0.31180316     1.36900
C1442       C  0.51439002  0.36278311  0.30679765     0.77600
O1443       O  0.94666630  0.33854919  0.30321512    -0.60800
O1444       O  0.93820526  0.37161798  0.27545238    -0.51700
C1445       C  0.92483351  0.38303283  0.35023706     0.70300
O1446       O  0.94906903  0.37182279  0.35317377    -0.46600
C1447       C  0.98201353  0.43493432  0.30753535     0.75000
O1448       O  0.00229765  0.35675026  0.32584546    -0.58400
O1449       O  0.96569572  0.42369223  0.29087937    -0.48500
O1450       O  0.99937694  0.36926204  0.28570459    -0.54900
C1451       C  0.93462395  0.34582734  0.28219421     0.85200
O1452       O  0.92133943  0.39459761  0.32809039    -0.56800
O1453       O  0.98723324  0.41906201  0.32700875    -0.60100
In1454     In  0.54677100  0.10415078  0.30157166     1.36900
C1455       C  0.49579327  0.12480214  0.29151228     0.77600
O1456       O  0.55917641  0.14749864  0.28914159    -0.60800
O1457       O  0.57346205  0.11236535  0.26559264    -0.51700
C1458       C  0.58380904  0.10322182  0.34120433     0.70300
O1459       O  0.55972460  0.11504367  0.34294020    -0.46600
C1460       C  0.52914259  0.05071558  0.30223827     0.75000
O1461       O  0.50843436  0.13068099  0.31278786    -0.58400
O1462       O  0.54344393  0.06034070  0.28322946    -0.48500
O1463       O  0.50941582  0.10877580  0.27603250    -0.54900
C1464       C  0.57205658  0.13925886  0.26879318     0.85200
O1465       O  0.58864542  0.09201960  0.31901773    -0.56800
O1466       O  0.52485167  0.06816123  0.32078314    -0.60100
In1467     In  0.70610662  0.09468390  0.46325488     1.36900
C1468       C  0.75736255  0.11428027  0.47415687     0.77600
O1469       O  0.69538409  0.13850526  0.47574691    -0.60800
O1470       O  0.67941536  0.10442939  0.49909378    -0.51700
C1471       C  0.66962227  0.09706938  0.42330443     0.70300
O1472       O  0.69536595  0.10365741  0.42086701    -0.46600
C1473       C  0.72128214  0.03985680  0.46378599     0.75000
O1474       O  0.74428319  0.12160866  0.45348499    -0.58400
O1475       O  0.70581550  0.05076991  0.48152987    -0.48500
O1476       O  0.74433184  0.09680149  0.48841583    -0.54900
C1477       C  0.68174209  0.13121349  0.49582479     0.85200
O1478       O  0.66290797  0.08902004  0.44608313    -0.56800
O1479       O  0.72697064  0.05683117  0.44530171    -0.60100
In1480     In  0.79227328  0.37467223  0.46326229     1.36900
C1481       C  0.74194778  0.35086775  0.47029039     0.77600
O1482       O  0.81045516  0.33192905  0.47167734    -0.60800
O1483       O  0.81590795  0.36437289  0.50072545    -0.51700
C1484       C  0.83174042  0.37829712  0.42570039     0.70300
O1485       O  0.80745048  0.36805626  0.42148066    -0.46600
C1486       C  0.77579651  0.42885761  0.46518703     0.75000
O1487       O  0.75570117  0.34745040  0.44915669    -0.58400
O1488       O  0.78914218  0.41723875  0.48392343    -0.48500
O1489       O  0.75354248  0.36684602  0.48698274    -0.54900
C1490       C  0.82071008  0.33878592  0.49360533     0.85200
O1491       O  0.83531005  0.38699639  0.44895069    -0.56800
O1492       O  0.77163381  0.41287658  0.44559017    -0.60100
In1493     In  0.60829626  0.44380745  0.71198060     1.36900
C1494       C  0.63190215  0.49439820  0.72031191     0.77600
O1495       O  0.57186230  0.46825400  0.69495043    -0.60800
O1496       O  0.56568418  0.44704940  0.73124078    -0.51700
C1497       C  0.60699800  0.40619181  0.67209650     0.70300
O1498       O  0.61795269  0.43068812  0.67020818    -0.46600
C1499       C  0.64118305  0.41575070  0.74530777     0.75000
O1500       O  0.63731272  0.47985173  0.69987380    -0.58400
O1501       O  0.61487450  0.41812058  0.74917540    -0.48500
O1502       O  0.61447957  0.48312643  0.73575250    -0.54900
C1503       C  0.55542757  0.46350128  0.71396681     0.85200
O1504       O  0.59625687  0.40136514  0.69431845    -0.56800
O1505       O  0.65011202  0.42727571  0.72464428    -0.60100
In1506     In  0.88848456  0.02458920  0.71288518     1.36900
C1507       C  0.87124851  0.47774084  0.72353640     0.77600
O1508       O  0.92693289  0.00725154  0.69299458    -0.60800
O1509       O  0.93171063  0.02501542  0.73119989    -0.51700
C1510       C  0.88671356  0.06503965  0.67566832     0.70300
O1511       O  0.87880380  0.03953274  0.67144872    -0.46600
C1512       C  0.85171610  0.04754514  0.74637247     0.75000
O1513       O  0.86365751  0.98542606  0.70106348    -0.58400
O1514       O  0.87814876  0.04956514  0.74977570    -0.48500
O1515       O  0.88739407  0.98468301  0.73656173    -0.54900
C1516       C  0.94344041  0.01282533  0.71173053     0.85200
O1517       O  0.89520711  0.06916119  0.69878343    -0.56800
O1518       O  0.84456402  0.03444859  0.72578541    -0.60100
In1519     In  0.89172934  0.18982670  0.55428915     1.36900
C1520       C  0.87353943  0.24259155  0.54410217     0.77600
O1521       O  0.93089040  0.20733893  0.57279743    -0.60800
O1522       O  0.93457950  0.18985835  0.53436197    -0.51700
C1523       C  0.88872647  0.15087824  0.59244000     0.70300
O1524       O  0.88193405  0.17692139  0.59607206    -0.46600
C1525       C  0.85364953  0.16658858  0.52259844     0.75000
O1526       O  0.86920912  0.23107954  0.56625744    -0.58400
O1527       O  0.87995267  0.16313148  0.51886116    -0.48500
O1528       O  0.88785276  0.22728085  0.52847574    -0.54900
C1529       C  0.94661671  0.20256658  0.55323706     0.85200
O1530       O  0.89761565  0.14534360  0.56961957    -0.56800
O1531       O  0.84721112  0.18131928  0.54255112    -0.60100
In1532     In  0.60730881  0.27941888  0.55126937     1.36900
C1533       C  0.62788995  0.22716233  0.54408224     0.77600
O1534       O  0.57049642  0.25801339  0.56905222    -0.60800
O1535       O  0.56466210  0.27658092  0.53148379    -0.51700
C1536       C  0.60695356  0.31774550  0.59060820     0.70300
O1537       O  0.61640881  0.29249839  0.59303269    -0.46600
C1538       C  0.64428673  0.30267384  0.51855665     0.75000
O1539       O  0.63336591  0.24152489  0.56458105    -0.58400
O1540       O  0.61789635  0.30531370  0.51495248    -0.48500
O1541       O  0.61161783  0.23935354  0.52796534    -0.54900
C1542       C  0.55422570  0.26156237  0.54968613     0.85200
O1543       O  0.59750678  0.32315163  0.56794574    -0.56800
O1544       O  0.65098922  0.28903295  0.53895727    -0.60100
In1545     In  0.95786516  0.35430035  0.96113725     1.36900
C1546       C  0.51211128  0.37960073  0.96732198     0.77600
O1547       O  0.94502714  0.39881252  0.97024995    -0.60800
O1548       O  0.93149595  0.36647455  0.99672782    -0.51700
C1549       C  0.92017446  0.35364011  0.92220798     0.70300
O1550       O  0.94475116  0.36376785  0.91932863    -0.46600
C1551       C  0.97486602  0.29986217  0.96210705     0.75000
O1552       O  0.99791930  0.37847525  0.95116828    -0.58400
O1553       O  0.95868156  0.31050008  0.97947487    -0.48500
O1554       O  0.99381648  0.35878591  0.98862363    -0.54900
C1555       C  0.93247079  0.39297918  0.99137870     0.85200
O1556       O  0.91552589  0.34339820  0.94471486    -0.56800
O1557       O  0.98047729  0.31689014  0.94360642    -0.60100
In1558     In  0.54080614  0.13446473  0.96113973     1.36900
C1559       C  0.48874944  0.11619803  0.97057138     0.77600
O1560       O  0.55160027  0.09100008  0.97614006    -0.60800
O1561       O  0.56703854  0.12693447  0.99752052    -0.51700
C1562       C  0.58002892  0.13185696  0.92339167     0.70300
O1563       O  0.55558092  0.12143447  0.92063258    -0.46600
C1564       C  0.52612565  0.18940830  0.95888289     0.75000
O1565       O  0.50161215  0.10968891  0.94948717    -0.58400
O1566       O  0.53818694  0.17858830  0.97874439    -0.48500
O1567       O  0.50249193  0.13226750  0.98575319    -0.54900
C1568       C  0.56558532  0.09995493  0.99550654     0.85200
O1569       O  0.58407941  0.14336507  0.94551198    -0.56800
O1570       O  0.52270166  0.17226966  0.93997321    -0.60100
In1571     In  0.78993669  0.35178280  0.80669826     1.36900
C1572       C  0.73797739  0.37041053  0.79697209     0.77600
O1573       O  0.80026701  0.39502490  0.79159258    -0.60800
O1574       O  0.81610914  0.35889838  0.77031482    -0.51700
C1575       C  0.82926443  0.35367158  0.84462905     0.70300
O1576       O  0.80518409  0.36546248  0.84693326    -0.46600
C1577       C  0.77302197  0.29772998  0.80853852     0.75000
O1578       O  0.74984802  0.37541100  0.81884263    -0.58400
O1579       O  0.78754501  0.30724323  0.78961611    -0.48500
O1580       O  0.75295737  0.35634782  0.78090888    -0.54900
C1581       C  0.81404533  0.38590378  0.77203561     0.85200
O1582       O  0.83281145  0.34093828  0.82296233    -0.56800
O1583       O  0.76852870  0.31570336  0.82660432    -0.60100
In1584     In  0.70993721  0.12825361  0.80795223     1.36900
C1585       C  0.76018626  0.10483641  0.79847160     0.77600
O1586       O  0.69714491  0.08432987  0.79700459    -0.60800
O1587       O  0.68411054  0.11823175  0.77168460    -0.51700
C1588       C  0.67092178  0.12951248  0.84584815     0.70300
O1589       O  0.69555774  0.11942299  0.84931290    -0.46600
C1590       C  0.72636003  0.18270110  0.80746580     0.75000
O1591       O  0.74736880  0.10083166  0.82000218    -0.58400
O1592       O  0.71168926  0.17171014  0.78933942    -0.48500
O1593       O  0.74782372  0.12154058  0.78273138    -0.54900
C1594       C  0.68438686  0.09157026  0.77633056     0.85200
O1595       O  0.66665985  0.13911162  0.82304014    -0.56800
O1596       O  0.73150791  0.16590382  0.82630719    -0.60100
In1597     In  0.85795299  0.04254969  0.05045955     1.36900
C1598       C  0.87870420  0.48764975  0.04422926     0.77600
O1599       O  0.82221258  0.01777687  0.06819033    -0.60800
O1600       O  0.81346876  0.04097398  0.03357978    -0.51700
C1601       C  0.86072997  0.07920777  0.09105436     0.70300
O1602       O  0.87053644  0.05396071  0.09189878    -0.46600
C1603       C  0.89076978  0.07200554  0.01834424     0.75000
O1604       O  0.88412225  0.00331802  0.06144809    -0.58400
O1605       O  0.86456546  0.06945086  0.01389159    -0.48500
O1606       O  0.86836589  0.00748097  0.02257475    -0.54900
C1607       C  0.80425579  0.02387937  0.05074289     0.85200
O1608       O  0.84865288  0.08515111  0.06961665    -0.56800
O1609       O  0.89951539  0.05993937  0.03891585    -0.60100
In1610     In  0.63581060  0.45398422  0.06002623     1.36900
C1611       C  0.61446684  0.50540172  0.04864928     0.77600
O1612       O  0.67155204  0.47644106  0.07996575    -0.60800
O1613       O  0.67994591  0.45565012  0.04366554    -0.51700
C1614       C  0.63563873  0.41443091  0.09785270     0.70300
O1615       O  0.62719467  0.43992509  0.10181703    -0.46600
C1616       C  0.60221141  0.42980926  0.02484358     0.75000
O1617       O  0.60738627  0.49235134  0.06944579    -0.58400
O1618       O  0.62884156  0.42958749  0.02213067    -0.48500
O1619       O  0.63286139  0.49235644  0.03514667    -0.54900
C1620       C  0.68937391  0.47111799  0.06213702     0.85200
O1621       O  0.64403777  0.40951782  0.07475983    -0.56800
O1622       O  0.59335953  0.44094845  0.04592958    -0.60100
In1623     In  0.86229835  0.20155335  0.21475515     1.36900
C1624       C  0.88052845  0.25250339  0.22911347     0.77600
O1625       O  0.82685904  0.22609069  0.19703131    -0.60800
O1626       O  0.81797217  0.20139376  0.23098744    -0.51700
C1627       C  0.86437402  0.16532455  0.17420551     0.70300
O1628       O  0.87407308  0.19047007  0.17300300    -0.46600
C1629       C  0.89871980  0.17722047  0.24726191     0.75000
O1630       O  0.88600538  0.24229445  0.20653420    -0.58400
O1631       O  0.87228380  0.17447151  0.25037084    -0.48500
O1632       O  0.86526994  0.23667377  0.24318105    -0.54900
C1633       C  0.80884332  0.21898244  0.21398904     0.85200
O1634       O  0.85370799  0.15905797  0.19617290    -0.56800
O1635       O  0.90591472  0.19068838  0.22695479    -0.60100
In1636     In  0.64278236  0.28821448  0.21890757     1.36900
C1637       C  0.62211959  0.23579261  0.22229551     0.77600
O1638       O  0.68031867  0.26767891  0.19982332    -0.60800
O1639       O  0.68537787  0.28336388  0.23856690    -0.51700
C1640       C  0.64211416  0.32835266  0.18082989     0.70300
O1641       O  0.63103111  0.30396024  0.17809811    -0.46600
C1642       C  0.60950639  0.31255566  0.25509221     0.75000
O1643       O  0.61583822  0.25215166  0.20334703    -0.58400
O1644       O  0.63610871  0.31456572  0.25602880    -0.48500
O1645       O  0.63866879  0.24637038  0.23901836    -0.54900
C1646       C  0.69644511  0.27012181  0.21941123     0.85200
O1647       O  0.65354696  0.33167279  0.20293275    -0.56800
O1648       O  0.60034772  0.29822291  0.23599922    -0.60100
C1649       C  0.76705171  0.23554222  0.23936843    -0.05700
C1650       C  0.77985486  0.23157242  0.21472953     0.00200
C1651       C  0.76538714  0.24097395  0.19188094    -0.08400
C1652       C  0.73837831  0.25342562  0.19462477    -0.05800
C1653       C  0.72566450  0.25784170  0.21925138     0.00200
C1654       C  0.74041420  0.24901578  0.24218558    -0.08300
C1655       C  0.72837007  0.25358058  0.26952789     0.62100
H1656       H  0.77857538  0.22869044  0.25662019     0.12800
H1657       H  0.72706976  0.26041297  0.17729672     0.12800
C1658       C  0.77808088  0.23790268  0.16458845     0.62300
F1659       F  0.74574869  0.24218394  0.28877095    -0.22800
F1660       F  0.70235290  0.24053523  0.27153572    -0.20200
F1661       F  0.72545452  0.28258619  0.27446192    -0.19800
F1662       F  0.78690930  0.20994336  0.16045490    -0.19900
F1663       F  0.80077405  0.25613996  0.16204550    -0.20200
F1664       F  0.75882035  0.24475892  0.14511458    -0.22900
C1665       C  0.65087261  0.39868982  0.14209699    -0.05700
C1666       C  0.63663096  0.39222821  0.11877160     0.00200
C1667       C  0.62453202  0.36478438  0.11566916    -0.08400
C1668       C  0.62692437  0.34478680  0.13632798    -0.05800
C1669       C  0.64128956  0.35104032  0.15986735     0.00200
C1670       C  0.65395843  0.37855229  0.16257452    -0.08300
C1671       C  0.67106510  0.38696608  0.18658954     0.62100
H1672       H  0.66015014  0.41969762  0.14386753     0.12800
H1673       H  0.61746439  0.32393572  0.13413788     0.12800
C1674       C  0.60827509  0.35698703  0.09099028     0.62300
F1675       F  0.68249122  0.41402602  0.18421846    -0.22800
F1676       F  0.69322967  0.36784804  0.19001321    -0.20200
F1677       F  0.65398375  0.38712113  0.20858378    -0.19800
F1678       F  0.62627074  0.35642314  0.06961689    -0.19900
F1679       F  0.58707279  0.37699824  0.08671187    -0.20200
F1680       F  0.59590162  0.33032769  0.09291456    -0.22900
C1681       C  0.86822111  0.11512038  0.15866722    -0.05700
C1682       C  0.86545188  0.14421316  0.15214858     0.00200
C1683       C  0.86260416  0.15189237  0.12536213    -0.08400
C1684       C  0.86121915  0.12994113  0.10627789    -0.05800
C1685       C  0.86344265  0.10070748  0.11282355     0.00200
C1686       C  0.86787655  0.09320663  0.13954805    -0.08300
C1687       C  0.87181198  0.06233742  0.14820611     0.62100
H1688       H  0.87085717  0.10964406  0.17917662     0.12800
H1689       H  0.85849788  0.13556637  0.08583095     0.12800
C1690       C  0.86025478  0.18298466  0.11690720     0.62300
F1691       F  0.87481517  0.06003989  0.17515119    -0.22800
F1692       F  0.89593633  0.05090534  0.13681989    -0.20200
F1693       F  0.84858227  0.04644820  0.14087727    -0.19800
F1694       F  0.88488684  0.19719296  0.12310293    -0.19900
F1695       F  0.83769877  0.19605854  0.12953852    -0.20200
F1696       F  0.85603925  0.18557441  0.09013484    -0.22900
C1697       C  0.76483414  0.00090745  0.07496791    -0.05700
C1698       C  0.77514815  0.01128346  0.05090975     0.00200
C1699       C  0.75801370  0.49991666  0.03447056    -0.08400
C1700       C  0.73117923  0.48741474  0.03722068    -0.05800
C1701       C  0.71842482  0.48340077  0.06182587     0.00200
C1702       C  0.73828260  0.98757277  0.07726657    -0.08300
C1703       C  0.72844875  0.97759858  0.10409911     0.62100
H1704       H  0.77770687  0.00375968  0.09231294     0.12800
H1705       H  0.71961775  0.48103708  0.01987227     0.12800
C1706       C  0.77065530  0.50285396  0.00722442     0.62300
F1707       F  0.74961719  0.97955809  0.12274654    -0.22800
F1708       F  0.72018541  0.94929115  0.10283714    -0.20200
F1709       F  0.70600170  0.99445247  0.11243510    -0.19800
F1710       F  0.79694827  0.48978732  0.00640304    -0.19900
F1711       F  0.77320715  0.53149300  0.00098795    -0.20200
F1712       F  0.75403608  0.49013710  0.98819501    -0.22900
C1713       C  0.75496149  0.25515161  0.78486315    -0.05700
C1714       C  0.76121182  0.26826533  0.80898762     0.00200
C1715       C  0.75551244  0.25332373  0.83261364    -0.08400
C1716       C  0.74383934  0.22568850  0.83108447    -0.05800
C1717       C  0.73732052  0.21261135  0.80694343     0.00200
C1718       C  0.74300194  0.22763715  0.78333048    -0.08300
C1719       C  0.73725293  0.21460981  0.75652318     0.62100
H1720       H  0.75920355  0.26691226  0.76705341     0.12800
H1721       H  0.73946527  0.21408203  0.84894663     0.12800
C1722       C  0.76216610  0.26608561  0.85939278     0.62300
F1723       F  0.74641356  0.23198036  0.73633072    -0.22800
F1724       F  0.70853962  0.21066102  0.75333510    -0.20200
F1725       F  0.75124809  0.18859660  0.75424355    -0.19800
F1726       F  0.74419709  0.28895769  0.86446363    -0.19900
F1727       F  0.78988299  0.27525899  0.86000448    -0.20200
F1728       F  0.75881486  0.24639876  0.87936758    -0.22900
C1729       C  0.94637030  0.12373902  0.99679043    -0.05700
C1730       C  0.96106415  0.10709555  0.97808853     0.00200
C1731       C  0.94843452  0.08167145  0.96843926    -0.08400
C1732       C  0.92339721  0.07199121  0.98050730    -0.05800
C1733       C  0.91062729  0.08727503  0.00115294     0.00200
C1734       C  0.92128187  0.11424743  0.00847948    -0.08300
C1735       C  0.90654152  0.13247811  0.02914872     0.62100
H1736       H  0.95546918  0.14372392  0.00321502     0.12800
H1737       H  0.91461071  0.05151307  0.97510017     0.12800
C1738       C  0.96169766  0.06419291  0.94644409     0.62300
F1739       F  0.91948122  0.15872712  0.03241362    -0.22800
F1740       F  0.90682520  0.11852795  0.05303146    -0.20200
F1741       F  0.87885720  0.13741493  0.02165171    -0.19800
F1742       F  0.98830718  0.05476336  0.95376518    -0.19900
F1743       F  0.46503614  0.07267003  0.92721533    -0.20200
F1744       F  0.94573717  0.04042112  0.94020432    -0.22900
C1745       C  0.56280043  0.06171306  0.02888392    -0.05700
C1746       C  0.57965205  0.07979802  0.01363181     0.00200
C1747       C  0.60920044  0.07562259  0.01308771    -0.08400
C1748       C  0.62073764  0.05160498  0.02588974    -0.05800
C1749       C  0.60372617  0.03213109  0.03959587     0.00200
C1750       C  0.57446834  0.03821345  0.04259689    -0.08300
C1751       C  0.55551804  0.01975847  0.05947616     0.62100
H1752       H  0.54020597  0.06567657  0.02926598     0.12800
H1753       H  0.64316434  0.04708505  0.02424301     0.12800
C1754       C  0.62814739  0.09561044  0.99778011     0.62300
F1755       F  0.52787228  0.02968898  0.05958168    -0.22800
F1756       F  0.56522723  0.02007595  0.08506485    -0.20200
F1757       F  0.55548736  0.99190784  0.05026696    -0.19800
F1758       F  0.62504283  0.12320123  0.00734539    -0.19900
F1759       F  0.62082096  0.09509980  0.97151591    -0.20200
F1760       F  0.65635513  0.08790520  0.99985307    -0.22900
C1761       C  0.63094664  0.13207586  0.91134507    -0.05700
C1762       C  0.60267112  0.13074408  0.90288834     0.00200
C1763       C  0.59706601  0.12944462  0.87554190    -0.08400
C1764       C  0.62000265  0.12923536  0.85781017    -0.05800
C1765       C  0.64827818  0.12982148  0.86632104     0.00200
C1766       C  0.65388438  0.13140747  0.89363354    -0.08300
C1767       C  0.68384608  0.13284951  0.90418504     0.62100
H1768       H  0.63503711  0.13326729  0.93220891     0.12800
H1769       H  0.61596176  0.12816015  0.83695567     0.12800
C1770       C  0.56710689  0.12875171  0.86491280     0.62300
F1771       F  0.68437733  0.13766614  0.93099695    -0.22800
F1772       F  0.69820662  0.15496824  0.89223981    -0.20200
F1773       F  0.69772631  0.10720775  0.89930105    -0.19800
F1774       F  0.55166662  0.15162626  0.87485657    -0.19900
F1775       F  0.55443730  0.10335704  0.87201451    -0.20200
F1776       F  0.56645469  0.13054037  0.83780577    -0.22900
C1777       C  0.89363336  0.41209995  0.01968980    -0.05700
C1778       C  0.92043561  0.41588643  0.00840820     0.00200
C1779       C  0.93481271  0.44213312  0.01248134    -0.08400
C1780       C  0.92115437  0.46422784  0.02648941    -0.05800
C1781       C  0.89354653  0.46125893  0.03578342     0.00200
C1782       C  0.87959911  0.43476881  0.03285636    -0.08300
C1783       C  0.84976736  0.43096732  0.04301084     0.62100
H1784       H  0.88305697  0.39189472  0.01668648     0.12800
H1785       H  0.93122042  0.48484961  0.02861106     0.12800
C1786       C  0.96390236  0.44766226  0.00102322     0.62300
F1787       F  0.83148897  0.44863062  0.02932024    -0.22800
F1788       F  0.84864036  0.43803861  0.06937449    -0.20200
F1789       F  0.84067250  0.40304787  0.04013255    -0.19800
F1790       F  0.96146285  0.45284863  0.97440270    -0.19900
F1791       F  0.98153938  0.42433790  0.00505532    -0.20200
F1792       F  0.97648708  0.47118733  0.01255896    -0.22900
C1793       C  0.58291508  0.38831056  0.00057894    -0.05700
C1794       C  0.58246728  0.41791200  0.00520854     0.00200
C1795       C  0.56142738  0.43517944  0.99307560    -0.08400
C1796       C  0.54050188  0.42188020  0.97784739    -0.05800
C1797       C  0.53918411  0.39206580  0.97568932     0.00200
C1798       C  0.56115268  0.37492524  0.98634529    -0.08300
C1799       C  0.56127601  0.34263649  0.98283066     0.62100
H1800       H  0.59937514  0.37550686  0.00975646     0.12800
H1801       H  0.52350536  0.43456996  0.96937782     0.12800
C1802       C  0.56032662  0.46735816  0.99715788     0.62300
F1803       F  0.55915567  0.33602905  0.95642408    -0.22800
F1804       F  0.02981174  0.33118065  0.01935605    -0.20200
F1805       F  0.07563746  0.32268643  0.01107940    -0.19800
F1806       F  0.58612934  0.47917498  0.99086393    -0.19900
F1807       F  0.55403449  0.47329504  0.02304150    -0.20200
F1808       F  0.53982653  0.48032582  0.98176691    -0.22900
C1809       C  0.86970314  0.35838832  0.90994712    -0.05700
C1810       C  0.89775311  0.35432663  0.90159252     0.00200
C1811       C  0.90319609  0.35023475  0.87447773    -0.08400
C1812       C  0.88021121  0.35020627  0.85678199    -0.05800
C1813       C  0.85206646  0.35461649  0.86507420     0.00200
C1814       C  0.84675679  0.35893406  0.89227389    -0.08300
C1815       C  0.81710442  0.36361052  0.90293371     0.62100
H1816       H  0.86590035  0.36153449  0.93073545     0.12800
H1817       H  0.88419657  0.34703394  0.83603412     0.12800
C1818       C  0.93299758  0.34534617  0.86426164     0.62300
F1819       F  0.81672811  0.36528962  0.93007102    -0.22800
F1820       F  0.80004739  0.34108225  0.89554659    -0.20200
F1821       F  0.80608907  0.38900738  0.89332907    -0.19800
F1822       F  0.94573677  0.32301737  0.87770803    -0.19900
F1823       F  0.94861194  0.36996061  0.86765761    -0.20200
F1824       F  0.93327497  0.33848200  0.83781115    -0.22900
C1825       C  0.00643504  0.26264317  0.94282064    -0.05700
C1826       C  0.98778272  0.27047703  0.96325761     0.00200
C1827       C  0.48874318  0.25696568  0.98208734    -0.08400
C1828       C  0.50155011  0.22958926  0.98107950    -0.05800
C1829       C  0.51524342  0.21930363  0.95849117     0.00200
C1830       C  0.02072793  0.23609526  0.94229984    -0.08300
C1831       C  0.04047872  0.22895853  0.91962187     0.62100
H1832       H  0.00973996  0.27753399  0.92690188     0.12800
H1833       H  0.50029513  0.21548733  0.99785789     0.12800
C1834       C  0.47374525  0.26616718  0.00712792     0.62300
F1835       F  0.04393772  0.25200933  0.90293411    -0.22800
F1836       F  0.02969720  0.20658985  0.90502610    -0.20200
F1837       F  0.06678806  0.22127601  0.92921903    -0.19800
F1838       F  0.44541280  0.27092974  0.00201963    -0.19900
F1839       F  0.48579126  0.29088714  0.01685611    -0.20200
F1840       F  0.47558972  0.24549535  0.02650333    -0.22900
C1841       C  0.48396530  0.22856246  0.52750462    -0.05700
C1842       C  0.97598833  0.21348667  0.55190237     0.00200
C1843       C  0.99623518  0.20798691  0.57167418    -0.08400
C1844       C  0.02173095  0.22341789  0.57149602    -0.05800
C1845       C  0.52587258  0.24778039  0.54893177     0.00200
C1846       C  0.50968214  0.24360867  0.52572016    -0.08300
C1847       C  0.51944318  0.25432677  0.49912457     0.62100
H1848       H  0.47090977  0.22585091  0.51026310     0.12800
H1849       H  0.03693297  0.21976544  0.58697829     0.12800
C1850       C  0.99160916  0.18465710  0.59189665     0.62300
F1851       F  0.54552788  0.24245713  0.49307871    -0.22800
F1852       F  0.52134898  0.28385333  0.49955456    -0.20200
F1853       F  0.50091513  0.24693042  0.47925880    -0.19800
F1854       F  0.98623677  0.15907874  0.57913925    -0.19900
F1855       F  0.96897977  0.19155922  0.60790067    -0.20200
F1856       F  0.01508691  0.18062953  0.60769374    -0.22900
C1857       C  0.78452447  0.06002747  0.78584893    -0.05700
C1858       C  0.78635133  0.08948460  0.79078203     0.00200
C1859       C  0.81157549  0.10407193  0.78467648    -0.08400
C1860       C  0.83343510  0.08910950  0.77161831    -0.05800
C1861       C  0.83046492  0.06031300  0.76435755     0.00200
C1862       C  0.80630702  0.04504521  0.77274113    -0.08300
C1863       C  0.80316250  0.01323438  0.76744987     0.62100
H1864       H  0.76511642  0.04918569  0.79081442     0.12800
H1865       H  0.85232763  0.10027433  0.76561254     0.12800
C1866       C  0.81519611  0.13531843  0.79188348     0.62300
F1867       F  0.78182710  0.00152155  0.78248548    -0.22800
F1868       F  0.82802155  0.99891018  0.77348696    -0.20200
F1869       F  0.79670323  0.00889949  0.74131230    -0.19800
F1870       F  0.80932899  0.13917021  0.81826357    -0.19900
F1871       F  0.79697062  0.15209887  0.77723169    -0.20200
F1872       F  0.84250131  0.14445216  0.78731174    -0.22900
C1873       C  0.82792121  0.44965089  0.72818570    -0.05700
C1874       C  0.85751165  0.44996081  0.72865576     0.00200
C1875       C  0.87244617  0.42574716  0.73833097    -0.08400
C1876       C  0.85712475  0.40377513  0.75056694    -0.05800
C1877       C  0.82774919  0.40571672  0.75355101     0.00200
C1878       C  0.81263500  0.42811669  0.74099696    -0.08300
C1879       C  0.78059034  0.42965176  0.74157767     0.62100
H1880       H  0.81684303  0.46767171  0.71960705     0.12800
H1881       H  0.86817968  0.38591722  0.75951082     0.12800
C1882       C  0.90424840  0.42286990  0.73544059     0.62300
F1883       F  0.77019671  0.45075389  0.72506998    -0.22800
F1884       F  0.77134837  0.43574331  0.76671463    -0.20200
F1885       F  0.76955196  0.40374553  0.73353986    -0.19800
F1886       F  0.91772939  0.44239241  0.75141541    -0.19900
F1887       F  0.91177075  0.42768090  0.70960302    -0.20200
F1888       F  0.91366711  0.39571857  0.74221524    -0.22900
C1889       C  0.87920235  0.08013850  0.62925046    -0.05700
C1890       C  0.88640901  0.08801274  0.65506073     0.00200
C1891       C  0.89300239  0.11728459  0.66023977    -0.08400
C1892       C  0.89328051  0.13691148  0.63921222    -0.05800
C1893       C  0.88696822  0.12871728  0.61341197     0.00200
C1894       C  0.87899875  0.09997202  0.60838970    -0.08300
C1895       C  0.86916927  0.09036282  0.58139293     0.62100
H1896       H  0.87378173  0.05808820  0.62540070     0.12800
H1897       H  0.89888870  0.15899303  0.64269870     0.12800
C1898       C  0.89944352  0.12833621  0.68768905     0.62300
F1899       F  0.85822617  0.06297313  0.58184742    -0.22800
F1900       F  0.89156651  0.09038147  0.56398200    -0.20200
F1901       F  0.84816704  0.10866410  0.57245748    -0.19800
F1902       F  0.92384077  0.11551597  0.69709325    -0.19900
F1903       F  0.87705199  0.12252459  0.70424926    -0.20200
F1904       F  0.90354097  0.15765401  0.68810112    -0.22900
C1905       C  0.63082000  0.04408748  0.74257977    -0.05700
C1906       C  0.64793641  0.02044316  0.73592816     0.00200
C1907       C  0.67750717  0.02187783  0.73970462    -0.08400
C1908       C  0.68878231  0.04655990  0.75146447    -0.05800
C1909       C  0.67151799  0.06965949  0.75923330     0.00200
C1910       C  0.64220351  0.06897176  0.75398868    -0.08300
C1911       C  0.62294883  0.09373094  0.76166825     0.62100
H1912       H  0.60380820  0.54123565  0.73320921     0.12800
H1913       H  0.71116546  0.04753493  0.75580063     0.12800
C1914       C  0.69680225  0.99676642  0.73303303     0.62300
F1915       F  0.59507421  0.08856143  0.75510833    -0.22800
F1916       F  0.63131724  0.11823439  0.74876293    -0.20200
F1917       F  0.62434695  0.09826942  0.78847129    -0.19800
F1918       F  0.72490482  0.00292669  0.73779136    -0.19900
F1919       F  0.69415697  0.98988319  0.70675065    -0.20200
F1920       F  0.68958859  0.97335043  0.74808192    -0.22900
C1921       C  0.69541479  0.36336984  0.77017802    -0.05700
C1922       C  0.70908839  0.37995432  0.78938290     0.00200
C1923       C  0.69661724  0.40627938  0.79751622    -0.08400
C1924       C  0.67249658  0.41637295  0.78400576    -0.05800
C1925       C  0.66075232  0.40087395  0.76313762     0.00200
C1926       C  0.67153304  0.37351697  0.75672709    -0.08300
C1927       C  0.65848384  0.35576121  0.73493198     0.62100
H1928       H  0.70460913  0.34290354  0.76462684     0.12800
H1929       H  0.66360672  0.43725882  0.78855787     0.12800
C1930       C  0.70917579  0.42418996  0.81940714     0.62300
F1931       F  0.67082675  0.32884709  0.73305933    -0.22800
F1932       F  0.66186828  0.36942671  0.71111484    -0.20200
F1933       F  0.62996862  0.35231921  0.73978181    -0.19800
F1934       F  0.73670808  0.43130277  0.81339123    -0.19900
F1935       F  0.70870678  0.40880822  0.84254988    -0.20200
F1936       F  0.69414169  0.44939628  0.82338447    -0.22900
C1937       C  0.60678193  0.35522738  0.65791557    -0.05700
C1938       C  0.60720707  0.38424458  0.65061249     0.00200
C1939       C  0.60762366  0.39118729  0.62350202    -0.08400
C1940       C  0.60720385  0.36878765  0.60480951    -0.05800
C1941       C  0.60722970  0.33973507  0.61209989     0.00200
C1942       C  0.60723104  0.33280381  0.63925176    -0.08300
C1943       C  0.60748485  0.30199538  0.64875382     0.62100
H1944       H  0.60670630  0.35018537  0.67861325     0.12800
H1945       H  0.60740039  0.37387872  0.58412671     0.12800
C1946       C  0.60813564  0.42202678  0.61414603     0.62300
F1947       F  0.60513520  0.30024621  0.67578653    -0.22800
F1948       F  0.63262540  0.28882954  0.64161092    -0.20200
F1949       F  0.58505643  0.28732851  0.63789080    -0.19800
F1950       F  0.63328824  0.43457352  0.62147967    -0.19900
F1951       F  0.58572297  0.43714727  0.62500265    -0.20200
F1952       F  0.60598362  0.42396721  0.58711655    -0.22900
C1953       C  0.48153233  0.98825780  0.74403937    -0.05700
C1954       C  0.97375272  0.00424901  0.71150404     0.00200
C1955       C  0.99227323  0.51111783  0.70023558    -0.08400
C1956       C  0.01827514  0.49642638  0.69984200    -0.05800
C1957       C  0.52664806  0.47661851  0.71551402     0.00200
C1958       C  0.50854394  0.97539012  0.74595533    -0.08300
C1959       C  0.51618242  0.95901395  0.77070583     0.62100
H1960       H  0.46593031  0.98475803  0.75920330     0.12800
H1961       H  0.03138073  0.49781260  0.68248966     0.12800
C1962       C  0.98418550  0.53012986  0.67723298     0.62300
F1963       F  0.49478119  0.96027249  0.78923831    -0.22800
F1964       F  0.54006916  0.97073586  0.78191761    -0.20200
F1965       F  0.52111276  0.93050634  0.76478267    -0.19800
F1966       F  0.97183515  0.55532789  0.68614553    -0.19900
F1967       F  0.96541799  0.51593817  0.66112455    -0.20200
F1968       F  0.00760361  0.53741547  0.66248508    -0.22900
C1969       C  0.82674255  0.30905403  0.53351911    -0.05700
C1970       C  0.83721374  0.31799762  0.50917108     0.00200
C1971       C  0.86173642  0.30488590  0.49868837    -0.08400
C1972       C  0.87421439  0.28209568  0.51233504    -0.05800
C1973       C  0.86231685  0.27098243  0.53543260     0.00200
C1974       C  0.83863990  0.28532597  0.54683135    -0.08300
C1975       C  0.82512198  0.27513709  0.57208848     0.62100
H1976       H  0.80803537  0.31970864  0.54117769     0.12800
H1977       H  0.89270073  0.27167942  0.50404453     0.12800
C1978       C  0.87447568  0.31467719  0.47290267     0.62300
F1979       F  0.80237472  0.29222589  0.57939509    -0.22800
F1980       F  0.84473044  0.27586842  0.59217857    -0.20200
F1981       F  0.81541034  0.24750956  0.56889725    -0.19800
F1982       F  0.87856794  0.34390339  0.47379465    -0.19900
F1983       F  0.85656879  0.30810209  0.45236759    -0.20200
F1984       F  0.90032074  0.30165850  0.46793245    -0.22900
C1985       C  0.68984819  0.35175828  0.47660417    -0.05700
C1986       C  0.71531084  0.33606890  0.47649784     0.00200
C1987       C  0.71588020  0.30798437  0.48666740    -0.08400
C1988       C  0.69156529  0.29744852  0.49896164    -0.05800
C1989       C  0.66655314  0.31376407  0.50079241     0.00200
C1990       C  0.66500236  0.34065705  0.48800190    -0.08300
C1991       C  0.63771934  0.35788736  0.48720480     0.62100
H1992       H  0.68986854  0.37317743  0.46851831     0.12800
H1993       H  0.69219619  0.27650690  0.50803988     0.12800
C1994       C  0.74246647  0.28964983  0.48529634     0.62300
F1995       F  0.64082154  0.38324291  0.47355066    -0.22800
F1996       F  0.62902419  0.36446748  0.51244998    -0.20200
F1997       F  0.61704137  0.34211279  0.47475658    -0.19800
F1998       F  0.76402574  0.30269990  0.49899682    -0.19900
F1999       F  0.75044626  0.28623592  0.45935373    -0.20200
F2000       F  0.73844183  0.26273474  0.49590920    -0.22900
C2001       C  0.64045875  0.15146165  0.51942395    -0.05700
C2002       C  0.66933003  0.15297602  0.51350146     0.00200
C2003       C  0.68513987  0.17697576  0.52191315    -0.08400
C2004       C  0.67093587  0.19976671  0.53435510    -0.05800
C2005       C  0.64160300  0.19958830  0.53770310     0.00200
C2006       C  0.62607000  0.17483130  0.53098978    -0.08300
C2007       C  0.59442516  0.17343478  0.53547860     0.62100
H2008       H  0.62885910  0.13280353  0.51305943     0.12800
H2009       H  0.68234885  0.21898531  0.53953998     0.12800
C2010       C  0.71665720  0.17925793  0.51670907     0.62300
F2011       F  0.58063715  0.19221574  0.51883564    -0.22800
F2012       F  0.58828312  0.18074293  0.56119503    -0.20200
F2013       F  0.58411418  0.14622984  0.53084266    -0.19800
F2014       F  0.72123459  0.18499859  0.49045656    -0.19900
F2015       F  0.73017494  0.15391887  0.52334574    -0.20200
F2016       F  0.72869963  0.20103617  0.53126821    -0.22900
C2017       C  0.78842065  0.15619078  0.48019212    -0.05700
C2018       C  0.78483286  0.12648607  0.48233908     0.00200
C2019       C  0.80622342  0.10969571  0.49453433    -0.08400
C2020       C  0.82948386  0.12359025  0.50598387    -0.05800
C2021       C  0.83169655  0.15346678  0.50589070     0.00200
C2022       C  0.81145334  0.17010092  0.49207637    -0.08300
C2023       C  0.81425639  0.20236500  0.48986097     0.62100
H2024       H  0.77222886  0.16861363  0.47041342     0.12800
H2025       H  0.84535615  0.11128307  0.51640903     0.12800
C2026       C  0.80458912  0.07725660  0.49560977     0.62300
F2027       F  0.79377683  0.21410503  0.47364271    -0.22800
F2028       F  0.84043227  0.20889121  0.47951564    -0.20200
F2029       F  0.81157230  0.21493964  0.51433161    -0.19800
F2030       F  0.79811036  0.06649408  0.47102876    -0.19900
F2031       F  0.78408400  0.06910029  0.51333419    -0.20200
F2032       F  0.83000127  0.06510876  0.50340000    -0.22900
C2033       C  0.74981436  0.00181441  0.44255432    -0.05700
C2034       C  0.73336566  0.01020724  0.46433385     0.00200
C2035       C  0.73481153  0.49363758  0.48952999    -0.08400
C2036       C  0.74834227  0.46662856  0.48809124    -0.05800
C2037       C  0.76470370  0.45848199  0.46633513     0.00200
C2038       C  0.76885382  0.47805091  0.44564874    -0.08300
C2039       C  0.78124887  0.96769889  0.41725207     0.62100
H2040       H  0.75179465  0.01637208  0.42618698     0.12800
H2041       H  0.74565886  0.45121822  0.50370810     0.12800
C2042       C  0.71712824  0.50089908  0.51356706     0.62300
F2043       F  0.78505004  0.99110446  0.40104620    -0.22800
F2044       F  0.77515475  0.45032024  0.40700554    -0.20200
F2045       F  0.81364737  0.46069246  0.43126964    -0.19800
F2046       F  0.68946090  0.50608850  0.50614833    -0.19900
F2047       F  0.72791149  0.52480286  0.52597778    -0.20200
F2048       F  0.71704061  0.47879155  0.53161541    -0.22900
C2049       C  0.61367835  0.16078367  0.24755032    -0.05700
C2050       C  0.58431250  0.16012468  0.25051940     0.00200
C2051       C  0.56731267  0.18144184  0.23844827    -0.08400
C2052       C  0.58060276  0.20478804  0.22635431    -0.05800
C2053       C  0.61010169  0.20706161  0.22606250     0.00200
C2054       C  0.62692324  0.18374721  0.23490716    -0.08300
C2055       C  0.65879037  0.18249530  0.23192771     0.62100
H2056       H  0.62648481  0.14385326  0.25616993     0.12800
H2057       H  0.56802382  0.22253590  0.21907283     0.12800
C2058       C  0.53529101  0.17973380  0.23887328     0.62300
F2059       F  0.66669078  0.15605191  0.22188266    -0.22800
F2060       F  0.67127155  0.18605259  0.25622154    -0.20200
F2061       F  0.66887188  0.20311665  0.21499167    -0.19800
F2062       F  0.52537226  0.18348555  0.26416560    -0.19900
F2063       F  0.52695195  0.15324032  0.22961769    -0.20200
F2064       F  0.52293822  0.20052199  0.22322821    -0.22900
C2065       C  0.96456377  0.16953910  0.28907602    -0.05700
C2066       C  0.96622988  0.13973566  0.29139203     0.00200
C2067       C  0.94312003  0.12275036  0.28340922    -0.08400
C2068       C  0.92028574  0.13602693  0.27044853    -0.05800
C2069       C  0.92010308  0.16552625  0.26550628     0.00200
C2070       C  0.94187331  0.18286941  0.27600762    -0.08300
C2071       C  0.94137287  0.21526076  0.27324176     0.62100
H2072       H  0.98221457  0.18216177  0.29588360     0.12800
H2073       H  0.90330961  0.12308773  0.26264298     0.12800
C2074       C  0.94303788  0.09055708  0.28709447     0.62300
F2075       F  0.96250067  0.22800927  0.28785617    -0.22800
F2076       F  0.91572038  0.22598055  0.28199352    -0.20200
F2077       F  0.94524387  0.22283545  0.24730177    -0.19800
F2078       F  0.91566790  0.08042219  0.28828587    -0.19900
F2079       F  0.95641838  0.08299636  0.31023052    -0.20200
F2080       F  0.95677483  0.07755789  0.26623144    -0.22900
C2081       C  0.62057178  0.10666639  0.40846357    -0.05700
C2082       C  0.64843314  0.09906338  0.40171180     0.00200
C2083       C  0.65482751  0.09262955  0.37515823    -0.08400
C2084       C  0.63309890  0.09451291  0.35629568    -0.05800
C2085       C  0.60518610  0.10242310  0.36290663     0.00200
C2086       C  0.59875830  0.10851475  0.38965061    -0.08300
C2087       C  0.56907918  0.11636238  0.39869288     0.62100
H2088       H  0.61602498  0.11137626  0.42887542     0.12800
H2089       H  0.63794421  0.08984875  0.33594421     0.12800
C2090       C  0.68419809  0.08297337  0.36676139     0.62300
F2091       F  0.56744029  0.11952565  0.42568247    -0.22800
F2092       F  0.55052154  0.09501748  0.39148341    -0.20200
F2093       F  0.56077229  0.14204733  0.38754982    -0.19800
F2094       F  0.69305828  0.06018658  0.38206985    -0.19900
F2095       F  0.70287263  0.10537269  0.36951231    -0.20200
F2096       F  0.68485429  0.07412373  0.34080818    -0.22900
C2097       C  0.56161552  0.36772188  0.28679986    -0.05700
C2098       C  0.54228649  0.35012929  0.29987421     0.00200
C2099       C  0.54813577  0.32038747  0.30196960    -0.08400
C2100       C  0.57180446  0.30903090  0.28858540    -0.05800
C2101       C  0.58988496  0.32644163  0.27392189     0.00200
C2102       C  0.58554839  0.35642212  0.27394513    -0.08300
C2103       C  0.60518211  0.37596401  0.25896305     0.62100
H2104       H  0.55694831  0.39069423  0.28559209     0.12800
H2105       H  0.57562146  0.28588461  0.28830534     0.12800
C2106       C  0.52843671  0.30055827  0.31660418     0.62300
F2107       F  0.59732885  0.40446812  0.26139664    -0.22800
F2108       F  0.60482516  0.36881453  0.23261164    -0.20200
F2109       F  0.63237039  0.37292047  0.26853037    -0.19800
F2110       F  0.99414840  0.30861060  0.27040294    -0.19900
F2111       F  0.00395187  0.29405977  0.31157771    -0.20200
F2112       F  0.53832062  0.27257738  0.31658059    -0.22900
C2113       C  0.92327275  0.32080281  0.24050758    -0.05700
C2114       C  0.91749138  0.32532828  0.26720297     0.00200
C2115       C  0.89647673  0.30902812  0.27975173    -0.08400
C2116       C  0.88410288  0.28651474  0.26590042    -0.05800
C2117       C  0.89172710  0.27984378  0.23987362     0.00200
C2118       C  0.91043813  0.29834852  0.22635402    -0.08300
C2119       C  0.91703516  0.29460708  0.19740993     0.62100
H2120       H  0.93885615  0.33420193  0.23115996     0.12800
H2121       H  0.86894978  0.27324289  0.27595021     0.12800
C2122       C  0.88676882  0.31557847  0.30760209     0.62300
F2123       F  0.93299430  0.31696637  0.18781234    -0.22800
F2124       F  0.89213055  0.29387402  0.18323261    -0.20200
F2125       F  0.93209879  0.26947212  0.19344378    -0.19800
F2126       F  0.88098528  0.34451769  0.31004064    -0.19900
F2127       F  0.90751950  0.30783936  0.32534305    -0.20200
F2128       F  0.86242404  0.30093833  0.31401659    -0.22900
C2129       C  0.87355169  0.38487076  0.36135698    -0.05700
C2130       C  0.90161253  0.38196119  0.37027641     0.00200
C2131       C  0.90636498  0.37835896  0.39758638    -0.08400
C2132       C  0.88291587  0.37753408  0.41470198    -0.05800
C2133       C  0.85488615  0.37950394  0.40568196     0.00200
C2134       C  0.85009456  0.38352535  0.37846464    -0.08300
C2135       C  0.82051203  0.38762716  0.36754157     0.62100
H2136       H  0.87001775  0.38805353  0.34060035     0.12800
H2137       H  0.88638544  0.37514421  0.43546139     0.12800
C2138       C  0.93594303  0.37609545  0.40895949     0.62300
F2139       F  0.82081435  0.39446223  0.34112694    -0.22800
F2140       F  0.80704290  0.40972134  0.38077819    -0.20200
F2141       F  0.80525820  0.36272913  0.37043661    -0.19800
F2142       F  0.95180373  0.39921983  0.40094064    -0.19900
F2143       F  0.94870944  0.35092765  0.40061607    -0.20200
F2144       F  0.93571072  0.37598581  0.43613304    -0.22900
C2145       C  0.01131527  0.47372214  0.32606666    -0.05700
C2146       C  0.99490389  0.46394839  0.30487658     0.00200
C2147       C  0.48622949  0.48763435  0.29103970    -0.08400
C2148       C  0.50042615  0.51414012  0.29081600    -0.05800
C2149       C  0.51737453  0.02160116  0.30276615     0.00200
C2150       C  0.02379103  0.00385200  0.32924166    -0.08300
C2151       C  0.04544911  0.01159382  0.35002816     0.62100
H2152       H  0.01346169  0.46029879  0.34324426     0.12800
H2153       H  0.49657002  0.52931714  0.27517701     0.12800
C2154       C  0.46567251  0.48091468  0.26901076     0.62300
F2155       F  0.05066964  0.98913247  0.36705734    -0.22800
F2156       F  0.03592992  0.03464964  0.36472774    -0.20200
F2157       F  0.07065696  0.01863036  0.33801225    -0.19800
F2158       F  0.43911537  0.47607341  0.27935463    -0.19900
F2159       F  0.47484014  0.45699061  0.25527418    -0.20200
F2160       F  0.46328378  0.50322009  0.25129654    -0.22900
In2161     In  0.96518675  0.88328016  0.31417765     1.36900
C2162       C  0.51497271  0.86254646  0.30313126     0.77600
O2163       O  0.94901985  0.84025374  0.30381378    -0.60800
O2164       O  0.94170852  0.87384010  0.27641091    -0.51700
C2165       C  0.92615629  0.88324367  0.35229185     0.70300
O2166       O  0.95109160  0.87400896  0.35573679    -0.46600
C2167       C  0.98051894  0.93814608  0.31200848     0.75000
O2168       O  0.00233929  0.85602824  0.32745209    -0.58400
O2169       O  0.96523901  0.92644036  0.29477537    -0.48500
O2170       O  0.00377641  0.87634491  0.29010497    -0.54900
C2171       C  0.93826171  0.84779766  0.28229622     0.85200
O2172       O  0.92207559  0.89364105  0.32975043    -0.56800
O2173       O  0.98656502  0.92184065  0.33099655    -0.60100
In2174     In  0.54691454  0.60583041  0.30927903     1.36900
C2175       C  0.49558406  0.62428977  0.29696695     0.77600
O2176       O  0.55795064  0.65046806  0.29864910    -0.60800
O2177       O  0.57485185  0.61709762  0.27456423    -0.51700
C2178       C  0.58455571  0.60533796  0.34848852     0.70300
O2179       O  0.55996523  0.61600179  0.35102837    -0.46600
C2180       C  0.53077498  0.55149637  0.31050215     0.75000
O2181       O  0.50705123  0.63091775  0.31867762    -0.58400
O2182       O  0.54432644  0.56164079  0.29118561    -0.48500
O2183       O  0.51035849  0.60835031  0.28229512    -0.54900
C2184       C  0.57250514  0.64383383  0.27876372     0.85200
O2185       O  0.58925251  0.59490868  0.32594615    -0.56800
O2186       O  0.52667665  0.56885737  0.32919955    -0.60100
In2187     In  0.71090088  0.59747156  0.46698628     1.36900
C2188       C  0.76263710  0.61514168  0.47775586     0.77600
O2189       O  0.70104126  0.64189552  0.47945142    -0.60800
O2190       O  0.68485400  0.60799131  0.50287250    -0.51700
C2191       C  0.67353390  0.59969686  0.42777679     0.70300
O2192       O  0.69902401  0.60706141  0.42484970    -0.46600
C2193       C  0.72599708  0.54267370  0.46756207     0.75000
O2194       O  0.75035564  0.62175480  0.45644056    -0.58400
O2195       O  0.71021223  0.55353435  0.48509066    -0.48500
O2196       O  0.74839117  0.59955973  0.49283912    -0.54900
C2197       C  0.68735935  0.63474433  0.49959182     0.85200
O2198       O  0.66761649  0.59098043  0.45053325    -0.56800
O2199       O  0.73188932  0.55964438  0.44913831    -0.60100
In2200     In  0.79192679  0.87339961  0.46302337     1.36900
C2201       C  0.74142381  0.85087300  0.47135865     0.77600
O2202       O  0.80831572  0.83039590  0.47381445    -0.60800
O2203       O  0.81631104  0.86486382  0.50036434    -0.51700
C2204       C  0.83205471  0.87679211  0.42626892     0.70300
O2205       O  0.80806472  0.86598410  0.42167216    -0.46600
C2206       C  0.77368997  0.92704374  0.46238759     0.75000
O2207       O  0.75536302  0.84522873  0.45066303    -0.58400
O2208       O  0.78640669  0.91649622  0.48203873    -0.48500
O2209       O  0.75314967  0.86814446  0.48685051    -0.54900
C2210       C  0.81949366  0.83852170  0.49500085     0.85200
O2211       O  0.83507878  0.88588492  0.44946473    -0.56800
O2212       O  0.77142024  0.91038191  0.44296097    -0.60100
In2213     In  0.60861277  0.94382542  0.71959822     1.36900
C2214       C  0.63376832  0.99337617  0.72905227     0.77600
O2215       O  0.57271324  0.96940997  0.70409904    -0.60800
O2216       O  0.56615376  0.94716269  0.73971437    -0.51700
C2217       C  0.60674873  0.90623439  0.67930542     0.70300
O2218       O  0.61525914  0.93168866  0.67694063    -0.46600
C2219       C  0.64302022  0.91530314  0.75063858     0.75000
O2220       O  0.63761631  0.97982816  0.70774407    -0.58400
O2221       O  0.61687142  0.91716648  0.75570899    -0.48500
O2222       O  0.61680287  0.98185235  0.74479218    -0.54900
C2223       C  0.55618616  0.96447853  0.72298957     0.85200
O2224       O  0.59834112  0.90047397  0.70220956    -0.56800
O2225       O  0.65099206  0.92799244  0.73020024    -0.60100
In2226     In  0.89021108  0.53107303  0.72002807     1.36900
C2227       C  0.87043756  0.97180682  0.72166920     0.77600
O2228       O  0.92940925  0.51441341  0.70166404    -0.60800
O2229       O  0.93199095  0.52871896  0.74133898    -0.51700
C2230       C  0.89102812  0.57135845  0.68249049     0.70300
O2231       O  0.88316257  0.54587933  0.67838628    -0.46600
C2232       C  0.85222233  0.55296719  0.75301733     0.75000
O2233       O  0.86468647  0.49392694  0.70454521    -0.58400
O2234       O  0.87846332  0.55498300  0.75744688    -0.48500
O2235       O  0.88816913  0.48857529  0.73976336    -0.54900
C2236       C  0.94458582  0.51770706  0.72175350     0.85200
O2237       O  0.89835357  0.57589276  0.70591832    -0.56800
O2238       O  0.84604174  0.54068642  0.73179251    -0.60100
In2239     In  0.89504413  0.69230440  0.55741216     1.36900
C2240       C  0.87497785  0.74417557  0.54614816     0.77600
O2241       O  0.93226674  0.71206153  0.57676643    -0.60800
O2242       O  0.93870552  0.69267800  0.53946361    -0.51700
C2243       C  0.89304559  0.65432178  0.59663837     0.70300
O2244       O  0.88516850  0.68016328  0.59948645    -0.46600
C2245       C  0.85899768  0.66737634  0.52499436     0.75000
O2246       O  0.87013084  0.73219966  0.56798430    -0.58400
O2247       O  0.88548492  0.66487238  0.52185889    -0.48500
O2248       O  0.89112334  0.72997791  0.53116618    -0.54900
C2249       C  0.94930868  0.70667219  0.55835575     0.85200
O2250       O  0.90208716  0.64845546  0.57394124    -0.56800
O2251       O  0.85142558  0.68192468  0.54470604    -0.60100
In2252     In  0.60974061  0.78037059  0.55707437     1.36900
C2253       C  0.63183938  0.72876147  0.54976625     0.77600
O2254       O  0.57300855  0.75827281  0.57509382    -0.60800
O2255       O  0.56730247  0.77545794  0.53706918    -0.51700
C2256       C  0.60924001  0.81817394  0.59698725     0.70300
O2257       O  0.61909045  0.79303849  0.59904318    -0.46600
C2258       C  0.64485524  0.80507235  0.52322218     0.75000
O2259       O  0.63751214  0.74345412  0.57003265    -0.58400
O2260       O  0.61831727  0.80834686  0.52143543    -0.48500
O2261       O  0.61477049  0.74037621  0.53402015    -0.54900
C2262       C  0.55694305  0.76064777  0.55543926     0.85200
O2263       O  0.59963840  0.82371713  0.57441627    -0.56800
O2264       O  0.65283284  0.79005010  0.54235678    -0.60100
In2265     In  0.96038712  0.85742010  0.95938956     1.36900
C2266       C  0.51137664  0.87893809  0.96623121     0.77600
O2267       O  0.95021354  0.90229808  0.97053111    -0.60800
O2268       O  0.93439380  0.86900369  0.99497614    -0.51700
C2269       C  0.92153212  0.85782869  0.92159515     0.70300
O2270       O  0.94605505  0.86783599  0.91816768    -0.46600
C2271       C  0.97515060  0.80247931  0.96091765     0.75000
O2272       O  0.00065456  0.87963174  0.94735455    -0.58400
O2273       O  0.96031768  0.81430515  0.97863395    -0.48500
O2274       O  0.99764844  0.86024880  0.98513150    -0.54900
C2275       C  0.93635204  0.89561568  0.99071443     0.85200
O2276       O  0.91755046  0.84746465  0.94412996    -0.56800
O2277       O  0.98054706  0.81864882  0.94172704    -0.60100
In2278     In  0.53868283  0.63717169  0.96216570     1.36900
C2279       C  0.48703452  0.61941847  0.97437220     0.77600
O2280       O  0.55055384  0.59298533  0.97427417    -0.60800
O2281       O  0.56458169  0.62768339  0.99829399    -0.51700
C2282       C  0.57667090  0.63399371  0.92331503     0.70300
O2283       O  0.55161645  0.62500578  0.92088741    -0.46600
C2284       C  0.52403056  0.69204838  0.95984798     0.75000
O2285       O  0.49834120  0.61381046  0.95233801    -0.58400
O2286       O  0.53785483  0.68186441  0.97901945    -0.48500
O2287       O  0.50221470  0.63443525  0.98929075    -0.54900
C2288       C  0.56395130  0.60086490  0.99441375     0.85200
O2289       O  0.58195997  0.64463049  0.94560101    -0.56800
O2290       O  0.51909792  0.67443880  0.94163321    -0.60100
In2291     In  0.79138632  0.84531741  0.80860069     1.36900
C2292       C  0.73951675  0.86378658  0.79887257     0.77600
O2293       O  0.80006586  0.88879268  0.79356639    -0.60800
O2294       O  0.81847218  0.85344142  0.77299621    -0.51700
C2295       C  0.82976710  0.85031085  0.84623869     0.70300
O2296       O  0.80472728  0.85959258  0.84887158    -0.46600
C2297       C  0.77676948  0.79071545  0.81018014     0.75000
O2298       O  0.75169280  0.86911126  0.82048171    -0.58400
O2299       O  0.79042053  0.80115549  0.79113091    -0.48500
O2300       O  0.75392692  0.84857915  0.78321772    -0.54900
C2301       C  0.81509619  0.88033639  0.77460776     0.85200
O2302       O  0.83456190  0.83790368  0.82463306    -0.56800
O2303       O  0.77245561  0.80797035  0.82886304    -0.60100
In2304     In  0.70331464  0.62647559  0.80463355     1.36900
C2305       C  0.75422150  0.60351527  0.79870899     0.77600
O2306       O  0.69068607  0.58348052  0.79082158    -0.60800
O2307       O  0.67739421  0.61909857  0.76776438    -0.51700
C2308       C  0.66506573  0.62857757  0.84332530     0.70300
O2309       O  0.68879838  0.61624607  0.84556811    -0.46600
C2310       C  0.72330379  0.67939802  0.80482998     0.75000
O2311       O  0.73926716  0.59845656  0.81877306    -0.58400
O2312       O  0.70897510  0.66965755  0.78587401    -0.48500
O2313       O  0.74296999  0.61987470  0.78199521    -0.54900
C2314       C  0.67799355  0.59216867  0.77060659     0.85200
O2315       O  0.66111294  0.63989722  0.82112329    -0.56800
O2316       O  0.72560759  0.66247092  0.82398468    -0.60100
In2317     In  0.85549474  0.53827135  0.05511483     1.36900
C2318       C  0.88210271  0.99249937  0.03870903     0.77600
O2319       O  0.81962377  0.51554240  0.07462920    -0.60800
O2320       O  0.81139948  0.53610435  0.03832492    -0.51700
C2321       C  0.85665946  0.57655742  0.09441618     0.70300
O2322       O  0.86613603  0.55125527  0.09672239    -0.46600
C2323       C  0.88915782  0.56607248  0.02231168     0.75000
O2324       O  0.88360778  0.50052310  0.06566035    -0.58400
O2325       O  0.86276290  0.56471161  0.01834165    -0.48500
O2326       O  0.86156309  0.50025474  0.02918823    -0.54900
C2327       C  0.80194140  0.52062257  0.05664921     0.85200
O2328       O  0.84620256  0.58185296  0.07213504    -0.56800
O2329       O  0.89776090  0.55346128  0.04265946    -0.60100
In2330     In  0.63931734  0.95212804  0.05322085     1.36900
C2331       C  0.61670074  0.00395161  0.04616632     0.77600
O2332       O  0.67606536  0.97265580  0.07377452    -0.60800
O2333       O  0.68261511  0.95742978  0.03503972    -0.51700
C2334       C  0.63784367  0.91203073  0.09106352     0.70300
O2335       O  0.62798505  0.93713420  0.09413214    -0.46600
C2336       C  0.60667660  0.92729942  0.01724943     0.75000
O2337       O  0.61067862  0.98896564  0.06607957    -0.58400
O2338       O  0.63337375  0.92576829  0.01596318    -0.48500
O2339       O  0.63461913  0.99258962  0.03097287    -0.54900
C2340       C  0.69286535  0.97050996  0.05461820     0.85200
O2341       O  0.64861660  0.90787324  0.06872037    -0.56800
O2342       O  0.59721626  0.94078556  0.03685418    -0.60100
In2343     In  0.86466983  0.70367427  0.21391943     1.36900
C2344       C  0.88583602  0.75389832  0.22793412     0.77600
O2345       O  0.82990742  0.72795717  0.19446400    -0.60800
O2346       O  0.82083662  0.70721931  0.23070576    -0.51700
C2347       C  0.86260711  0.66571344  0.17485643     0.70300
O2348       O  0.87461597  0.68974934  0.17259419    -0.46600
C2349       C  0.90098249  0.67649968  0.24454020     0.75000
O2350       O  0.89038857  0.74334365  0.20529194    -0.58400
O2351       O  0.87469182  0.67649766  0.24950959    -0.48500
O2352       O  0.87005561  0.73887869  0.24226907    -0.54900
C2353       C  0.81200188  0.72316154  0.21225683     0.85200
O2354       O  0.85178214  0.66146754  0.19719697    -0.56800
O2355       O  0.90788705  0.68891527  0.22356738    -0.60100
In2356     In  0.64597759  0.79152072  0.21718441     1.36900
C2357       C  0.62662335  0.73930113  0.22828810     0.77600
O2358       O  0.68316662  0.77066385  0.19777641    -0.60800
O2359       O  0.69005839  0.79157057  0.23410777    -0.51700
C2360       C  0.64101947  0.82937493  0.17743492     0.70300
O2361       O  0.63411639  0.80332943  0.17510993    -0.46600
C2362       C  0.61197053  0.81619468  0.25229625     0.75000
O2363       O  0.61936751  0.75261580  0.20765704    -0.58400
O2364       O  0.63849406  0.81947942  0.25336377    -0.48500
O2365       O  0.64427627  0.75232697  0.24235400    -0.54900
C2366       C  0.70048670  0.77636287  0.21586322     0.85200
O2367       O  0.65069093  0.83544721  0.19978864    -0.56800
O2368       O  0.60360968  0.80129706  0.23319223    -0.60100
C2369       C  0.77380583  0.74845569  0.23609810    -0.05700
C2370       C  0.78351067  0.73671100  0.21236568     0.00200
C2371       C  0.76675486  0.73975728  0.18948394    -0.08400
C2372       C  0.73996383  0.75290505  0.19170323    -0.05800
C2373       C  0.73006487  0.76475053  0.21548467     0.00200
C2374       C  0.74795054  0.76356288  0.23790977    -0.08300
C2375       C  0.74063247  0.77878347  0.26342743     0.62100
H2376       H  0.78737323  0.74666673  0.25313403     0.12800
H2377       H  0.72665042  0.75450186  0.17449918     0.12800
C2378       C  0.77694601  0.72929698  0.16280284     0.62300
F2379       F  0.76167162  0.77554228  0.28208657    -0.22800
F2380       F  0.71597836  0.76794558  0.27382988    -0.20200
F2381       F  0.73739248  0.80778090  0.25871055    -0.19800
F2382       F  0.78545426  0.70094508  0.16431003    -0.19900
F2383       F  0.79937026  0.74581395  0.15460868    -0.20200
F2384       F  0.75600443  0.73129428  0.14391957    -0.22900
C2385       C  0.63442301  0.89953728  0.13833084    -0.05700
C2386       C  0.63744691  0.88984318  0.11236729     0.00200
C2387       C  0.63990059  0.85979021  0.10780666    -0.08400
C2388       C  0.64046240  0.84095246  0.12954202    -0.05800
C2389       C  0.63866254  0.85084734  0.15558613     0.00200
C2390       C  0.63484090  0.88076204  0.15997722    -0.08300
C2391       C  0.63023627  0.89309372  0.18725175     0.62100
H2392       H  0.63217962  0.92232622  0.14165723     0.12800
H2393       H  0.64292512  0.81816793  0.12633485     0.12800
C2394       C  0.64138873  0.84729731  0.08025698     0.62300
F2395       F  0.62327586  0.92194661  0.18660557    -0.22800
F2396       F  0.65461002  0.89016680  0.20195540    -0.20200
F2397       F  0.60824650  0.87892560  0.19929432    -0.19800
F2398       F  0.66617849  0.85547823  0.06817179    -0.19900
F2399       F  0.61849256  0.85680135  0.06573126    -0.20200
F2400       F  0.64087626  0.81765759  0.08040971    -0.22900
C2401       C  0.85823708  0.61485754  0.16113925    -0.05700
C2402       C  0.86141573  0.64360762  0.15357375     0.00200
C2403       C  0.86225752  0.65021207  0.12639843    -0.08400
C2404       C  0.86061262  0.62764345  0.10794432    -0.05800
C2405       C  0.85816162  0.59881474  0.11555555     0.00200
C2406       C  0.85643715  0.59234477  0.14269767    -0.08300
C2407       C  0.85165683  0.56202524  0.15231213     0.62100
H2408       H  0.85732747  0.61003621  0.18188089     0.12800
H2409       H  0.86135753  0.63242021  0.08719199     0.12800
C2410       C  0.86386727  0.68090766  0.11674318     0.62300
F2411       F  0.84668654  0.56117515  0.17908007    -0.22800
F2412       F  0.87524072  0.54529600  0.14711132    -0.20200
F2413       F  0.82839154  0.55052122  0.13983851    -0.19800
F2414       F  0.88942667  0.69271068  0.12389610    -0.19900
F2415       F  0.84196901  0.69689449  0.12749037    -0.20200
F2416       F  0.86169802  0.68260761  0.08970134    -0.22900
C2417       C  0.76026097  0.50423321  0.08201972    -0.05700
C2418       C  0.77274914  0.50872589  0.05733394     0.00200
C2419       C  0.75823058  0.00775809  0.02807364    -0.08400
C2420       C  0.73201823  0.99366728  0.03025608    -0.05800
C2421       C  0.72159723  0.98371267  0.05437362     0.00200
C2422       C  0.73329131  0.49189420  0.08478407    -0.08300
C2423       C  0.72128602  0.48755782  0.11216133     0.62100
H2424       H  0.77183583  0.51078320  0.09931228     0.12800
H2425       H  0.71895963  0.99092844  0.01301531     0.12800
C2426       C  0.76756448  0.01855084  0.00139292     0.62300
F2427       F  0.74075009  0.49402198  0.13152599    -0.22800
F2428       F  0.71353505  0.45928759  0.11535856    -0.20200
F2429       F  0.69800037  0.50518672  0.11586163    -0.19800
F2430       F  0.79350381  0.00673218  0.99486962    -0.19900
F2431       F  0.76950954  0.04806525  0.00200993    -0.20200
F2432       F  0.74867071  0.01133909  0.98176731    -0.22900
C2433       C  0.75906268  0.74931733  0.78492702    -0.05700
C2434       C  0.76487502  0.76135747  0.80962420     0.00200
C2435       C  0.75752557  0.74599815  0.83260541    -0.08400
C2436       C  0.74389871  0.71951927  0.82984731    -0.05800
C2437       C  0.73706800  0.70795708  0.80516352     0.00200
C2438       C  0.74514520  0.72294217  0.78217426    -0.08300
C2439       C  0.73953026  0.71132195  0.75480926     0.62100
H2440       H  0.76477504  0.76127219  0.76759366     0.12800
H2441       H  0.73789810  0.70781022  0.84723521     0.12800
C2442       C  0.76384890  0.75717620  0.86002720     0.62300
F2443       F  0.75087467  0.72856292  0.73548722    -0.22800
F2444       F  0.71074031  0.70987578  0.75054167    -0.20200
F2445       F  0.75151981  0.68434993  0.75218630    -0.19800
F2446       F  0.74642955  0.78031317  0.86563972    -0.19900
F2447       F  0.79180492  0.76537333  0.86171098    -0.20200
F2448       F  0.75933435  0.73659181  0.87904299    -0.22900
C2449       C  0.94261497  0.61982393  0.99924913    -0.05700
C2450       C  0.95821738  0.60343420  0.98100977     0.00200
C2451       C  0.94767385  0.57641240  0.97297719    -0.08400
C2452       C  0.92339071  0.56561103  0.98555851    -0.05800
C2453       C  0.90919823  0.58126928  0.00514363     0.00200
C2454       C  0.91812810  0.60924305  0.01133774    -0.08300
C2455       C  0.90216159  0.62740658  0.03124629     0.62100
H2456       H  0.95041781  0.64071517  0.00477094     0.12800
H2457       H  0.91606751  0.54422458  0.98113200     0.12800
C2458       C  0.96250173  0.55854748  0.95212786     0.62300
F2459       F  0.91390599  0.65427346  0.03416086    -0.22800
F2460       F  0.90248081  0.61411344  0.05544100    -0.20200
F2461       F  0.87448828  0.63090306  0.02308771    -0.19800
F2462       F  0.99013138  0.55306958  0.95949900    -0.19900
F2463       F  0.45437503  0.59424773  0.92620318    -0.20200
F2464       F  0.94937740  0.53251292  0.94819102    -0.22900
C2465       C  0.56396126  0.56757294  0.03234450    -0.05700
C2466       C  0.57856931  0.57987392  0.01129557     0.00200
C2467       C  0.60597134  0.57009808  0.00498363    -0.08400
C2468       C  0.61737987  0.54694060  0.01901389    -0.05800
C2469       C  0.60228863  0.53310977  0.03911408     0.00200
C2470       C  0.57557716  0.54453498  0.04686232    -0.08300
C2471       C  0.55932480  0.53279490  0.07010511     0.62100
H2472       H  0.54303259  0.57576398  0.03687997     0.12800
H2473       H  0.63808726  0.53883054  0.01363076     0.12800
C2474       C  0.62272327  0.58378186  0.98297951     0.62300
F2475       F  0.53447203  0.54790548  0.07453556    -0.22800
F2476       F  0.57570526  0.53483600  0.09247595    -0.20200
F2477       F  0.55239606  0.50451084  0.06584070    -0.19800
F2478       F  0.62563480  0.61272576  0.98798777    -0.19900
F2479       F  0.60874450  0.58017478  0.95939290    -0.20200
F2480       F  0.64947272  0.57186209  0.98052767    -0.22900
C2481       C  0.62698028  0.62839396  0.90996376    -0.05700
C2482       C  0.59865020  0.63202492  0.90224535     0.00200
C2483       C  0.59242552  0.63456838  0.87510255    -0.08400
C2484       C  0.61481327  0.63356342  0.85681724    -0.05800
C2485       C  0.64310011  0.62944724  0.86446904     0.00200
C2486       C  0.64934081  0.62665970  0.89164174    -0.08300
C2487       C  0.67938452  0.62240197  0.90149460     0.62100
H2488       H  0.63148943  0.62652960  0.93076962     0.12800
H2489       H  0.61022551  0.63553203  0.83605613     0.12800
C2490       C  0.56240759  0.63883137  0.86533710     0.62300
F2491       F  0.68076642  0.62222411  0.92863121    -0.22800
F2492       F  0.69625562  0.64438812  0.89259111    -0.20200
F2493       F  0.68999352  0.59643878  0.89262619    -0.19800
F2494       F  0.55016654  0.66219032  0.87776298    -0.19900
F2495       F  0.54680477  0.61459983  0.87047113    -0.20200
F2496       F  0.56143777  0.64370722  0.83856278    -0.22900
C2497       C  0.89331903  0.91982998  0.00675040    -0.05700
C2498       C  0.92278564  0.91764319  0.00730412     0.00200
C2499       C  0.93873170  0.93801791  0.02141537    -0.08400
C2500       C  0.92450833  0.96138475  0.03324416    -0.05800
C2501       C  0.89512350  0.96487001  0.03079573     0.00200
C2502       C  0.87909010  0.94327628  0.01822564    -0.08300
C2503       C  0.84704846  0.94482991  0.01715877     0.62100
H2504       H  0.88162878  0.90370638  0.99609624     0.12800
H2505       H  0.93639294  0.97791241  0.04314491     0.12800
C2506       C  0.97060503  0.93496322  0.02364702     0.62300
F2507       F  0.83838786  0.96782416  0.00213383    -0.22800
F2508       F  0.83640962  0.94783477  0.04231766    -0.20200
F2509       F  0.83562097  0.92038476  0.00618963    -0.19800
F2510       F  0.98294817  0.93830047  0.99925859    -0.19900
F2511       F  0.97741844  0.90808123  0.03321891    -0.20200
F2512       F  0.98189280  0.95516826  0.04046922    -0.22900
C2513       C  0.58301468  0.88447999  0.99933480    -0.05700
C2514       C  0.58728213  0.91405730  0.99804880     0.00200
C2515       C  0.56980074  0.93094547  0.98157911    -0.08400
C2516       C  0.54632868  0.91816904  0.96933882    -0.05800
C2517       C  0.54005642  0.88918365  0.97324809     0.00200
C2518       C  0.55981304  0.87157755  0.98682635    -0.08300
C2519       C  0.55599679  0.83946808  0.98922507     0.62100
H2520       H  0.59689216  0.87172601  0.01168711     0.12800
H2521       H  0.53154959  0.93126687  0.95831643     0.12800
C2522       C  0.57557640  0.96252151  0.97768620     0.62300
F2523       F  0.54596305  0.82815518  0.96592344    -0.22800
F2524       F  0.03433182  0.82762021  0.01040521    -0.20200
F2525       F  0.07943009  0.81826219  0.99975610    -0.19800
F2526       F  0.60353263  0.96621251  0.97064354    -0.19900
F2527       F  0.57028687  0.97729807  0.00068990    -0.20200
F2528       F  0.55878979  0.97415091  0.95813170    -0.22900
C2529       C  0.87057074  0.85647216  0.91067643    -0.05700
C2530       C  0.89859231  0.85807244  0.90150590     0.00200
C2531       C  0.90356226  0.85840769  0.87403373    -0.08400
C2532       C  0.88031072  0.85619958  0.85692171    -0.05800
C2533       C  0.85241205  0.85403877  0.86614361     0.00200
C2534       C  0.84731753  0.85454033  0.89354299    -0.08300
C2535       C  0.81771392  0.85197397  0.90479955     0.62100
H2536       H  0.86695904  0.85658678  0.93167415     0.12800
H2537       H  0.88378803  0.85617402  0.83590085     0.12800
C2538       C  0.93311661  0.86039565  0.86261129     0.62300
F2539       F  0.81788075  0.85067591  0.93193900    -0.22800
F2540       F  0.80522560  0.82728113  0.89546405    -0.20200
F2541       F  0.80158984  0.87551281  0.89766212    -0.19800
F2542       F  0.94983375  0.83836277  0.87218924    -0.19900
F2543       F  0.94481127  0.88644346  0.86930129    -0.20200
F2544       F  0.93306794  0.85835757  0.83548957    -0.22900
C2545       C  0.00157093  0.76225687  0.94029288    -0.05700
C2546       C  0.98664382  0.77259243  0.96234388     0.00200
C2547       C  0.48192511  0.75736678  0.98121164    -0.08400
C2548       C  0.49593688  0.73056493  0.98083085    -0.05800
C2549       C  0.51255063  0.72165563  0.95949415     0.00200
C2550       C  0.01425725  0.73492678  0.93971707    -0.08300
C2551       C  0.03015359  0.72516539  0.91530118     0.62100
H2552       H  0.00312232  0.77576448  0.92313299     0.12800
H2553       H  0.49332411  0.71578655  0.99697272     0.12800
C2554       C  0.46271870  0.76461357  0.00422155     0.62300
F2555       F  0.03330118  0.74715028  0.89740045    -0.22800
F2556       F  0.01554802  0.70340123  0.90304335    -0.20200
F2557       F  0.05684559  0.71544149  0.92209892    -0.19800
F2558       F  0.43580674  0.77073592  0.99514975    -0.19900
F2559       F  0.47316775  0.78790233  0.01779473    -0.20200
F2560       F  0.46064551  0.74209865  0.02172297    -0.22900
C2561       C  0.48670066  0.72750362  0.53293591    -0.05700
C2562       C  0.97870412  0.71775753  0.55814356     0.00200
C2563       C  0.99456815  0.72254995  0.58136940    -0.08400
C2564       C  0.02094845  0.73610148  0.57937454    -0.05800
C2565       C  0.52888232  0.74603997  0.55452142     0.00200
C2566       C  0.51271987  0.74202040  0.53124776    -0.08300
C2567       C  0.52264040  0.75260392  0.50466508     0.62100
H2568       H  0.47358546  0.72525656  0.51567293     0.12800
H2569       H  0.03303489  0.74012929  0.59698803     0.12800
C2570       C  0.98398237  0.71345938  0.60824666     0.62300
F2571       F  0.54898502  0.74113282  0.49896847    -0.22800
F2572       F  0.52400599  0.78216190  0.50487673    -0.20200
F2573       F  0.50450940  0.74463587  0.48466714    -0.19800
F2574       F  0.97522878  0.68528103  0.60742533    -0.19900
F2575       F  0.96169677  0.73090455  0.61588568    -0.20200
F2576       F  0.00481217  0.71550637  0.62721265    -0.22900
C2577       C  0.78378085  0.56087200  0.79119267    -0.05700
C2578       C  0.78232428  0.59067205  0.79408203     0.00200
C2579       C  0.80616243  0.60746687  0.78765612    -0.08400
C2580       C  0.82970366  0.59401719  0.77591033    -0.05800
C2581       C  0.82995898  0.56458456  0.77051669     0.00200
C2582       C  0.80724042  0.54745573  0.77927414    -0.08300
C2583       C  0.80721464  0.51528335  0.77507384     0.62100
H2584       H  0.76541115  0.54840733  0.79630165     0.12800
H2585       H  0.84739678  0.60690027  0.76961805     0.12800
C2586       C  0.80771398  0.63953749  0.79233570     0.62300
F2587       F  0.78541214  0.50229818  0.78854428    -0.22800
F2588       F  0.83242002  0.50351650  0.78379577    -0.20200
F2589       F  0.80389925  0.50933910  0.74871414    -0.19800
F2590       F  0.78500792  0.65028064  0.80640556    -0.19900
F2591       F  0.80893905  0.65347589  0.76846684    -0.20200
F2592       F  0.83190235  0.64559734  0.80643668    -0.22900
C2593       C  0.82745384  0.94426097  0.73042938    -0.05700
C2594       C  0.85706079  0.94466874  0.72974891     0.00200
C2595       C  0.87257775  0.92144602  0.74063314    -0.08400
C2596       C  0.85776949  0.89941256  0.75332651    -0.05800
C2597       C  0.82839188  0.90080200  0.75649664     0.00200
C2598       C  0.81276406  0.92314199  0.74439522    -0.08300
C2599       C  0.78084243  0.92539436  0.74707403     0.62100
H2600       H  0.81596116  0.96199788  0.72181515     0.12800
H2601       H  0.86922065  0.88199643  0.76255948     0.12800
C2602       C  0.90457018  0.91997732  0.73910762     0.62300
F2603       F  0.76950827  0.94550289  0.73008277    -0.22800
F2604       F  0.77384616  0.93350506  0.77239221    -0.20200
F2605       F  0.76862459  0.89928024  0.74147584    -0.19800
F2606       F  0.91623258  0.94080562  0.75496764    -0.19900
F2607       F  0.91318113  0.92413117  0.71347328    -0.20200
F2608       F  0.91492037  0.89365116  0.74728573    -0.22900
C2609       C  0.88681421  0.58434862  0.63535994    -0.05700
C2610       C  0.89169123  0.59361457  0.66124432     0.00200
C2611       C  0.89672636  0.62331132  0.66572592    -0.08400
C2612       C  0.89668139  0.64224325  0.64410199    -0.05800
C2613       C  0.89218304  0.63276124  0.61827409     0.00200
C2614       C  0.88691913  0.60323937  0.61382339    -0.08300
C2615       C  0.88062014  0.59154591  0.58659901     0.62100
H2616       H  0.88307072  0.56184492  0.63197248     0.12800
H2617       H  0.90061603  0.66477949  0.64715736     0.12800
C2618       C  0.90193764  0.63541004  0.69301487     0.62300
F2619       F  0.87215041  0.56325688  0.58733166    -0.22800
F2620       F  0.90456963  0.59289448  0.57112873    -0.20200
F2621       F  0.85907265  0.60735640  0.57521108    -0.19800
F2622       F  0.92623358  0.62340935  0.70348129    -0.19900
F2623       F  0.87913588  0.62961300  0.70907665    -0.20200
F2624       F  0.90544756  0.66481259  0.69269726    -0.22900
C2625       C  0.62636126  0.54435181  0.73517714    -0.05700
C2626       C  0.64465497  0.52234170  0.72669601     0.00200
C2627       C  0.67422243  0.52604725  0.72865309    -0.08400
C2628       C  0.68434255  0.55050218  0.74167279    -0.05800
C2629       C  0.66593984  0.57147175  0.75185658     0.00200
C2630       C  0.63659289  0.56929473  0.74734895    -0.08300
C2631       C  0.61618250  0.59244274  0.75649696     0.62100
H2632       H  0.60823008  0.04244293  0.73962232     0.12800
H2633       H  0.70679814  0.55287655  0.74508269     0.12800
C2634       C  0.69492510  0.50370530  0.71837591     0.62300
F2635       F  0.58863853  0.58649147  0.74929928    -0.22800
F2636       F  0.62347190  0.61828449  0.74531737    -0.20200
F2637       F  0.61721387  0.59492165  0.78353021    -0.19800
F2638       F  0.72269875  0.51171047  0.72239240    -0.19900
F2639       F  0.69098842  0.50010319  0.69168894    -0.20200
F2640       F  0.69070749  0.47791567  0.73097626    -0.22900
C2641       C  0.69859980  0.86140341  0.76924301    -0.05700
C2642       C  0.71120102  0.87480732  0.79102043     0.00200
C2643       C  0.69804264  0.89954131  0.80209962    -0.08400
C2644       C  0.67406345  0.91119065  0.78944375    -0.05800
C2645       C  0.66330637  0.89891482  0.76644667     0.00200
C2646       C  0.67508652  0.87328867  0.75653015    -0.08300
C2647       C  0.66331382  0.85919968  0.73198197     0.62100
H2648       H  0.70824202  0.84215500  0.76124376     0.12800
H2649       H  0.66449744  0.93092008  0.79649311     0.12800
C2650       C  0.70963377  0.91429531  0.82634771     0.62300
F2651       F  0.67590987  0.83287719  0.72705858    -0.22800
F2652       F  0.66786736  0.87651893  0.71045113    -0.20200
F2653       F  0.63460719  0.85501408  0.73496775    -0.19800
F2654       F  0.73667185  0.92395153  0.82150716    -0.19900
F2655       F  0.71010724  0.89527719  0.84710123    -0.20200
F2656       F  0.69322255  0.93764112  0.83374585    -0.22900
C2657       C  0.60849872  0.85515010  0.66469360    -0.05700
C2658       C  0.60736507  0.88429244  0.65761908     0.00200
C2659       C  0.60692605  0.89131493  0.63047958    -0.08400
C2660       C  0.60774434  0.86900828  0.61168720    -0.05800
C2661       C  0.60910291  0.83993691  0.61874183     0.00200
C2662       C  0.60951659  0.83283032  0.64585223    -0.08300
C2663       C  0.61037359  0.80191271  0.65507266     0.62100
H2664       H  0.60890104  0.84991062  0.68534783     0.12800
H2665       H  0.60747985  0.87422222  0.59101622     0.12800
C2666       C  0.60469157  0.92207910  0.62107905     0.62300
F2667       F  0.60856573  0.79984313  0.68211775    -0.22800
F2668       F  0.63549312  0.78906828  0.64739805    -0.20200
F2669       F  0.58789939  0.78711438  0.64443221    -0.19800
F2670       F  0.62846695  0.93706142  0.62845372    -0.19900
F2671       F  0.58088439  0.93492911  0.63178681    -0.20200
F2672       F  0.60253502  0.92377935  0.59402622    -0.22900
C2673       C  0.48505215  0.49451573  0.73880885    -0.05700
C2674       C  0.97438180  0.50793679  0.72223296     0.00200
C2675       C  0.98967338  0.00125140  0.68802893    -0.08400
C2676       C  0.01685361  0.98907457  0.68938457    -0.05800
C2677       C  0.52779095  0.97861986  0.72468096     0.00200
C2678       C  0.51260678  0.48277091  0.73956437    -0.08300
C2679       C  0.52696080  0.47841740  0.76593543     0.62100
H2680       H  0.47362314  0.49811066  0.75693299     0.12800
H2681       H  0.02860412  0.98547927  0.67143438     0.12800
C2682       C  0.97870136  0.01148636  0.66162259     0.62300
F2683       F  0.51093965  0.48940407  0.78641962    -0.22800
F2684       F  0.55266583  0.49231680  0.76608535    -0.20200
F2685       F  0.53120072  0.44955341  0.77054212    -0.19800
F2686       F  0.96770472  0.03891417  0.66402344    -0.19900
F2687       F  0.95803379  0.99322867  0.65259342    -0.20200
F2688       F  0.99996958  0.01228224  0.64294918    -0.22900
C2689       C  0.82300529  0.80583173  0.53316340    -0.05700
C2690       C  0.83590529  0.81839485  0.51134463     0.00200
C2691       C  0.86297860  0.80904191  0.50334581    -0.08400
C2692       C  0.87582615  0.78609099  0.51664959    -0.05800
C2693       C  0.86221782  0.77186234  0.53737660     0.00200
C2694       C  0.83566657  0.78249561  0.54642626    -0.08300
C2695       C  0.82002696  0.76857808  0.56898562     0.62100
H2696       H  0.80220711  0.81351738  0.53883977     0.12800
H2697       H  0.89621290  0.77822606  0.51004782     0.12800
C2698       C  0.87774318  0.82294246  0.48027125     0.62300
F2699       F  0.79453247  0.78217341  0.57420898    -0.22800
F2700       F  0.83628963  0.76986980  0.59149009    -0.20200
F2701       F  0.81440682  0.74030821  0.56293198    -0.19800
F2702       F  0.87906089  0.85219177  0.48435942    -0.19900
F2703       F  0.86288223  0.81758775  0.45744082    -0.20200
F2704       F  0.90502040  0.81265212  0.47699349    -0.22900
C2705       C  0.69215513  0.85673669  0.48647395    -0.05700
C2706       C  0.71390719  0.83807941  0.47828018     0.00200
C2707       C  0.71084269  0.80823810  0.48182408    -0.08400
C2708       C  0.68671766  0.79822168  0.49500588    -0.05800
C2709       C  0.66578272  0.81702102  0.50464846     0.00200
C2710       C  0.66796636  0.84669902  0.49960920    -0.08300
C2711       C  0.64590166  0.86779327  0.50962714     0.62100
H2712       H  0.69503719  0.87951498  0.48371852     0.12800
H2713       H  0.68465442  0.77558101  0.49908315     0.12800
C2714       C  0.73386080  0.78730555  0.47343667     0.62300
F2715       F  0.65256553  0.89575798  0.50333918    -0.22800
F2716       F  0.64386172  0.86587800  0.53664813    -0.20200
F2717       F  0.62000144  0.86166360  0.49853435    -0.19800
F2718       F  0.75870472  0.79348509  0.48646563    -0.19900
F2719       F  0.73821111  0.78939726  0.44667831    -0.20200
F2720       F  0.72682663  0.75925953  0.47900931    -0.22900
C2721       C  0.64561227  0.65443055  0.52269556    -0.05700
C2722       C  0.67454901  0.65638297  0.51721804     0.00200
C2723       C  0.69009426  0.67997562  0.52694246    -0.08400
C2724       C  0.67546864  0.70218038  0.53994276    -0.05800
C2725       C  0.64609058  0.70154381  0.54304591     0.00200
C2726       C  0.63093953  0.67684302  0.53543440    -0.08300
C2727       C  0.59958337  0.67402964  0.54110038     0.62100
H2728       H  0.63429041  0.63587904  0.51564174     0.12800
H2729       H  0.68663464  0.72120334  0.54611560     0.12800
C2730       C  0.72192758  0.68181091  0.52357402     0.62300
F2731       F  0.58427687  0.69424780  0.52724567    -0.22800
F2732       F  0.59484306  0.67792639  0.56766474    -0.20200
F2733       F  0.58962707  0.64726866  0.53415047    -0.19800
F2734       F  0.72864121  0.68579874  0.49745198    -0.19900
F2735       F  0.73454813  0.65681694  0.53240052    -0.20200
F2736       F  0.73311623  0.70440442  0.53769937    -0.22900
C2737       C  0.79593279  0.65536723  0.48062726    -0.05700
C2738       C  0.79053427  0.62641488  0.48566553     0.00200
C2739       C  0.81040135  0.61005340  0.50036896    -0.08400
C2740       C  0.83407950  0.62394099  0.51101659    -0.05800
C2741       C  0.83793628  0.65341719  0.50800984     0.00200
C2742       C  0.81916015  0.66935697  0.49197959    -0.08300
C2743       C  0.82341585  0.70108614  0.48724094     0.62100
H2744       H  0.78077767  0.66742662  0.46917774     0.12800
H2745       H  0.84882882  0.61222693  0.52322159     0.12800
C2746       C  0.80668930  0.57819816  0.50516492     0.62300
F2747       F  0.80391196  0.71204198  0.46959345    -0.22800
F2748       F  0.85014202  0.70548688  0.47714938    -0.20200
F2749       F  0.82056102  0.71603676  0.51053947    -0.19800
F2750       F  0.80127374  0.56435108  0.48168631    -0.19900
F2751       F  0.78457237  0.57377058  0.52235856    -0.20200
F2752       F  0.83069257  0.56590472  0.51601599    -0.22900
C2753       C  0.75539879  0.50488838  0.44694904    -0.05700
C2754       C  0.73815887  0.51306900  0.46827995     0.00200
C2755       C  0.73072293  0.99094697  0.48579323    -0.08400
C2756       C  0.74490612  0.96428593  0.48450515    -0.05800
C2757       C  0.76101148  0.95610639  0.46258899     0.00200
C2758       C  0.76365937  0.97516953  0.44125409    -0.08300
C2759       C  0.78782115  0.47087900  0.42244912     0.62100
H2760       H  0.75830393  0.51973566  0.43092588     0.12800
H2761       H  0.74309248  0.94920282  0.50050050     0.12800
C2762       C  0.71319089  0.99804422  0.50995583     0.62300
F2763       F  0.79281193  0.49459058  0.40692985    -0.22800
F2764       F  0.76773260  0.94673193  0.40292465    -0.20200
F2765       F  0.80768286  0.95796481  0.42485459    -0.19800
F2766       F  0.68547143  0.00325524  0.50272065    -0.19900
F2767       F  0.72404856  0.02187586  0.52241300    -0.20200
F2768       F  0.71319860  0.97580560  0.52787592    -0.22900
C2769       C  0.61503937  0.66528981  0.25809874    -0.05700
C2770       C  0.58571513  0.66612903  0.26212667     0.00200
C2771       C  0.56972855  0.68933846  0.25180911    -0.08400
C2772       C  0.58391804  0.71182926  0.23917466    -0.05800
C2773       C  0.61343119  0.71214606  0.23699677     0.00200
C2774       C  0.62932063  0.68811429  0.24584336    -0.08300
C2775       C  0.66107606  0.68635131  0.24188956     0.62100
H2776       H  0.62687921  0.64715190  0.26575785     0.12800
H2777       H  0.57209091  0.73028843  0.23224685     0.12800
C2778       C  0.53776529  0.69050833  0.25430029     0.62300
F2779       F  0.67194201  0.66001313  0.24943304    -0.22800
F2780       F  0.67434839  0.70720879  0.25655830    -0.20200
F2781       F  0.66733322  0.69023871  0.21562797    -0.19800
F2782       F  0.53024787  0.69500376  0.28020245    -0.19900
F2783       F  0.52634588  0.66502178  0.24559613    -0.20200
F2784       F  0.52611791  0.71246707  0.23954835    -0.22900
C2785       C  0.96712179  0.66577642  0.28538237    -0.05700
C2786       C  0.96981775  0.63586934  0.28470461     0.00200
C2787       C  0.94758680  0.61924920  0.27411899    -0.08400
C2788       C  0.92398497  0.63334832  0.26311461    -0.05800
C2789       C  0.92265068  0.66326491  0.26158637     0.00200
C2790       C  0.94417542  0.67988144  0.27333043    -0.08300
C2791       C  0.94323758  0.71239191  0.27247515     0.62100
H2792       H  0.98413390  0.67808845  0.29379382     0.12800
H2793       H  0.90744810  0.62105257  0.25382658     0.12800
C2794       C  0.94936953  0.58681749  0.27298741     0.62300
F2795       F  0.96500074  0.72445485  0.28674481    -0.22800
F2796       F  0.91792226  0.72223494  0.28280241    -0.20200
F2797       F  0.94567910  0.72160742  0.24686363    -0.19800
F2798       F  0.92307137  0.57487672  0.26889895    -0.19900
F2799       F  0.95991256  0.57602965  0.29630588    -0.20200
F2800       F  0.96691664  0.57858310  0.25256209    -0.22900
C2801       C  0.62442395  0.61076378  0.41429064    -0.05700
C2802       C  0.65163785  0.60171047  0.40684636     0.00200
C2803       C  0.65666381  0.59390044  0.38037979    -0.08400
C2804       C  0.63413148  0.59552075  0.36232129    -0.05800
C2805       C  0.60677039  0.60483825  0.36957660     0.00200
C2806       C  0.60190791  0.61284682  0.39621086    -0.08300
C2807       C  0.57337021  0.62361907  0.40588185     0.62100
H2808       H  0.62103540  0.61662431  0.43465137     0.12800
H2809       H  0.63795969  0.58958472  0.34206313     0.12800
C2810       C  0.68544482  0.58322163  0.37126583     0.62300
F2811       F  0.57345940  0.62928872  0.43258553    -0.22800
F2812       F  0.55297629  0.60321782  0.40119880    -0.20200
F2813       F  0.56631563  0.64876456  0.39311438    -0.19800
F2814       F  0.69456785  0.56097629  0.38709316    -0.19900
F2815       F  0.70464536  0.60531629  0.37247056    -0.20200
F2816       F  0.68477477  0.57322156  0.34566187    -0.22900
C2817       C  0.56579068  0.86700750  0.29240324    -0.05700
C2818       C  0.54251910  0.84927748  0.29686595     0.00200
C2819       C  0.54453318  0.81978423  0.29092318    -0.08400
C2820       C  0.56887313  0.80954544  0.27818514    -0.05800
C2821       C  0.59128090  0.82765021  0.27160309     0.00200
C2822       C  0.59070602  0.85648677  0.28042763    -0.08300
C2823       C  0.61569469  0.87609404  0.27655303     0.62100
H2824       H  0.56381741  0.88970279  0.29752264     0.12800
H2825       H  0.56996684  0.78717728  0.27189065     0.12800
C2826       C  0.52026784  0.79969338  0.29651085     0.62300
F2827       F  0.61043896  0.90331173  0.28636967    -0.22800
F2828       F  0.62186355  0.87850444  0.25019463    -0.20200
F2829       F  0.63894306  0.86495529  0.28951326    -0.19800
F2830       F  0.99569187  0.80724011  0.28266576    -0.19900
F2831       F  0.01157741  0.79691793  0.32331317    -0.20200
F2832       F  0.52712838  0.77154607  0.29050167    -0.22900
C2833       C  0.93428373  0.81766030  0.24224687    -0.05700
C2834       C  0.92247513  0.82731949  0.26595388     0.00200
C2835       C  0.89706959  0.81533386  0.27510977    -0.08400
C2836       C  0.88533165  0.79240910  0.26116339    -0.05800
C2837       C  0.89796028  0.78112000  0.23828400     0.00200
C2838       C  0.92230825  0.79477197  0.22794383    -0.08300
C2839       C  0.93593991  0.78523738  0.20236541     0.62100
H2840       H  0.95361515  0.82754131  0.23556026     0.12800
H2841       H  0.86626057  0.78265025  0.26856188     0.12800
C2842       C  0.88220924  0.82708568  0.29937759     0.62300
F2843       F  0.95908458  0.80178485  0.19604513    -0.22800
F2844       F  0.91658156  0.78772573  0.18217221    -0.20200
F2845       F  0.94504421  0.75712885  0.20422827    -0.19800
F2846       F  0.87693406  0.85602971  0.29612038    -0.19900
F2847       F  0.89889328  0.82312102  0.32133802    -0.20200
F2848       F  0.85666042  0.81373916  0.30382956    -0.22900
C2849       C  0.87509441  0.88713382  0.36333347    -0.05700
C2850       C  0.90280104  0.88146157  0.37214760     0.00200
C2851       C  0.90686112  0.87412775  0.39897247    -0.08400
C2852       C  0.88310907  0.87302924  0.41570728    -0.05800
C2853       C  0.85549543  0.87820128  0.40670176     0.00200
C2854       C  0.85139347  0.88560950  0.38003474    -0.08300
C2855       C  0.82235191  0.89313624  0.36941776     0.62100
H2856       H  0.87196739  0.89265453  0.34290829     0.12800
H2857       H  0.88591127  0.86769101  0.43615032     0.12800
C2858       C  0.93588404  0.86746913  0.41021272     0.62300
F2859       F  0.82346635  0.90275611  0.34376321    -0.22800
F2860       F  0.81048226  0.91464599  0.38454794    -0.20200
F2861       F  0.80522634  0.86934143  0.37002774    -0.19800
F2862       F  0.95368271  0.89035219  0.40610288    -0.19900
F2863       F  0.94690824  0.84318748  0.39829093    -0.20200
F2864       F  0.93491166  0.86241974  0.43696608    -0.22900
C2865       C  0.01094736  0.97678222  0.32964123    -0.05700
C2866       C  0.99172459  0.96801775  0.31015079     0.00200
C2867       C  0.48402630  0.98716650  0.28384617    -0.08400
C2868       C  0.49809381  0.01370759  0.28321121    -0.05800
C2869       C  0.51905120  0.52211787  0.31088677     0.00200
C2870       C  0.02494980  0.50032041  0.32573286    -0.08300
C2871       C  0.04372343  0.50876641  0.34861428     0.62100
H2872       H  0.01622761  0.96203980  0.34527196     0.12800
H2873       H  0.49363050  0.02893891  0.26774284     0.12800
C2874       C  0.46235506  0.98051361  0.26275963     0.62300
F2875       F  0.04844676  0.48609206  0.36554294    -0.22800
F2876       F  0.03116886  0.53073524  0.36275331    -0.20200
F2877       F  0.06968601  0.51763314  0.33934055    -0.19800
F2878       F  0.43654506  0.97489855  0.27431280    -0.19900
F2879       F  0.47113020  0.95706607  0.24816157    -0.20200
F2880       F  0.45852575  0.00319236  0.24563898    -0.22900
loop_ 
_geom_bond_atom_site_label_1 
_geom_bond_atom_site_label_2 
_geom_bond_distance 
_geom_bond_site_symmetry_2 
_ccdc_geom_bond_type 
In1           O3   2.221       .  S
In1           O4   2.262       .  S
In1          O12   2.248       .  S
In1           O6   2.272       .  S
In1           O8   2.265       .  S
In1           O9   2.251       .  S
In1          O10   2.221       .  S
In1          O13   2.239       .  S
C2          C658   1.473       .  S
C2         O1448   1.267       .  A
C2         O1450   1.259   1_455  A
O3           C11   1.259       .  A
O4           C11   1.266       .  A
C5          C690   1.501       .  S
C5           O12   1.262       .  A
C5            O6   1.266       .  A
C7          C706   1.501       .  S
C7            O9   1.265       .  A
C7           O13   1.265       .  A
O8         C1442   1.268       .  A
O10        C1442   1.261       .  A
C11         C674   1.472       .  S
In14         O16   2.232       .  S
In14         O17   2.273       .  S
In14         O25   2.249       .  S
In14         O19   2.263       .  S
In14         O21   2.253       .  S
In14         O22   2.264       .  S
In14         O23   2.221       .  S
In14         O26   2.227       .  S
C15        C2066   1.474       .  S
C15          O21   1.268   1_655  A
C15          O23   1.262   1_655  A
O16          C24   1.260       .  A
O17          C24   1.268       .  A
C18         C645   1.504       .  S
C18          O25   1.264       .  A
C18          O19   1.266       .  A
C20         C709   1.482       .  S
C20          O22   1.268       .  A
C20          O26   1.261       .  A
C24         C610   1.481       .  S
In27         O29   2.216       .  S
In27         O30   2.259       .  S
In27         O38   2.253       .  S
In27         O32   2.262       .  S
In27         O34   2.265       .  S
In27         O35   2.268       .  S
In27         O36   2.215       .  S
In27         O39   2.216       .  S
C28         C578   1.483       .  S
C28          O34   1.269       .  A
C28          O36   1.260       .  A
O29          C37   1.260       .  A
O30          C37   1.267       .  A
C31         C642   1.495       .  S
C31          O38   1.262       .  A
C31          O32   1.265       .  A
C33         C594   1.497       .  S
C33          O35   1.266       .  A
C33          O39   1.262       .  A
C37         C562   1.473       .  S
In40         O42   2.215       .  S
In40         O43   2.260       .  S
In40         O51   2.244       .  S
In40         O45   2.260       .  S
In40         O47   2.267       .  S
In40         O48   2.263       .  S
In40         O49   2.215       .  S
In40         O52   2.217       .  S
C41         C546   1.476       .  S
C41          O47   1.267       .  A
C41          O49   1.260       .  A
O42          C50   1.260       .  A
O43          C50   1.267       .  A
C44         C693   1.499       .  S
C44          O51   1.264       .  A
C44          O45   1.267       .  A
C46         C597   1.484       .  S
C46          O48   1.268       .  A
C46          O52   1.261       .  A
C50         C530   1.471       .  S
In53         O55   2.230       .  S
In53         O56   2.251       .  S
In53         O64   2.249       .  S
In53         O58   2.271       .  S
In53         O60   2.253       .  S
In53         O61   2.270       .  S
In53         O62   2.218       .  S
In53         O65   2.212       .  S
C54        C1186   1.477       .  S
C54          O60   1.267       .  A
C54          O62   1.260       .  A
O55          C63   1.263       .  A
O56          C63   1.265       .  A
C57         C498   1.493       .  S
C57          O64   1.262       .  A
C57          O58   1.265       .  A
C59         C485   1.474       .  S
C59          O61   1.267       .  A
C59          O65   1.259       .  A
C63         C517   1.495       .  S
In66         O68   2.226       .  S
In66         O69   2.252       .  S
In66         O77   2.246       .  S
In66         O71   2.262       .  S
In66         O73   2.270   1_545  S
In66         O74   2.253       .  S
In66         O75   2.219   1_545  S
In66         O78   2.213       .  S
C67         C434   1.480       .  S
C67         O793   1.268       .  A
C67         O795   1.260       .  A
O68          C76   1.261       .  A
O69          C76   1.264       .  A
C70         C450   1.500       .  S
C70          O77   1.259       .  A
C70          O71   1.266       .  A
C72         C421   1.471       .  S
C72          O74   1.265       .  A
C72          O78   1.258       .  A
O73         C787   1.267       .  A
O75         C787   1.258       .  A
C76         C514   1.477       .  S
In79         O81   2.219       .  S
In79         O82   2.262       .  S
In79         O90   2.242       .  S
In79         O84   2.260       .  S
In79         O86   2.255       .  S
In79         O87   2.263       .  S
In79         O88   2.215       .  S
In79         O91   2.211       .  S
C80         C533   1.488       .  S
C80          O86   1.268       .  A
C80          O88   1.262       .  A
O81          C89   1.261       .  A
O82          C89   1.268       .  A
C83         C453   1.495       .  S
C83          O90   1.262       .  A
C83          O84   1.267       .  A
C85         C581   1.472       .  S
C85          O87   1.268       .  A
C85          O91   1.260       .  A
C89         C402   1.485       .  S
In92         O94   2.248       .  S
In92         O95   2.260       .  S
In92        O103   2.260       .  S
In92         O97   2.256       .  S
In92         O99   2.261       .  S
In92        O100   2.273       .  S
In92        O101   2.209       .  S
In92        O104   2.216       .  S
C93         C565   1.474       .  S
C93          O99   1.268       .  A
C93         O101   1.260       .  A
O94         C102   1.263       .  A
O95         C102   1.265       .  A
C96         C501   1.504       .  S
C96         O103   1.263       .  A
C96          O97   1.263       .  A
C98         C549   1.478       .  S
C98         O100   1.267       .  A
C98         O104   1.259       .  A
C102        C405   1.505       .  S
In105       O107   2.220       .  S
In105       O108   2.261       .  S
In105       O116   2.230       .  S
In105       O110   2.276       .  S
In105       O112   2.265       .  S
In105       O113   2.260       .  S
In105       O114   2.204       .  S
In105       O117   2.234       .  S
C106        C357   1.486       .  S
C106       O1552   1.271   1_455  A
C106       O1554   1.261   1_455  A
O107        C115   1.261       .  A
O108        C115   1.268       .  A
C109        C370   1.500       .  S
C109        O116   1.263       .  A
C109        O110   1.268       .  A
C111        C386   1.500       .  S
C111        O113   1.266       .  A
C111        O117   1.264       .  A
O112       C1546   1.271       .  A
O114       C1546   1.261       .  A
C115        C338   1.481   1_556  S
In118       O120   2.226       .  S
In118       O121   2.264   1_556  S
In118       O129   2.239       .  S
In118       O123   2.244       .  S
In118       O125   2.270       .  S
In118       O126   2.257       .  S
In118       O127   2.210       .  S
In118       O130   2.225       .  S
C119       C1730   1.490       .  S
C119        O125   1.268   1_655  A
C119        O127   1.262   1_655  A
O120        C128   1.261       .  A
O121        C128   1.268   1_554  A
C122        C322   1.495       .  S
C122        O129   1.264       .  A
C122        O123   1.266       .  A
C124        C389   1.482       .  S
C124        O126   1.268       .  A
C124        O130   1.261       .  A
C128        C306   1.477   1_556  S
In131       O133   2.206       .  S
In131       O134   2.265       .  S
In131       O142   2.234       .  S
In131       O136   2.257       .  S
In131       O138   2.269       .  S
In131       O139   2.254       .  S
In131       O140   2.211       .  S
In131       O143   2.230       .  S
C132        C482   1.495       .  S
C132        O138   1.268       .  A
C132        O140   1.263       .  A
O133        C141   1.260       .  A
O134        C141   1.268       .  A
C135        C373   1.492       .  S
C135        O142   1.263       .  A
C135        O136   1.267       .  A
C137        C274   1.490       .  S
C137        O139   1.267       .  A
C137        O143   1.261       .  A
C141        C437   1.476       .  S
In144       O146   2.214       .  S
In144       O147   2.268       .  S
In144       O155   2.219       .  S
In144       O149   2.260       .  S
In144       O151   2.260       .  S
In144       O152   2.232       .  S
In144       O153   2.211       .  S
In144       O156   2.235       .  S
C145        C418   1.469       .  S
C145        O151   1.267       .  A
C145        O153   1.260       .  A
O146        C154   1.261       .  A
O147        C154   1.265       .  A
C148        C325   1.484       .  S
C148        O155   1.261       .  A
C148        O149   1.265       .  A
C150        C277   1.488       .  S
C150        O152   1.264       .  A
C150        O156   1.263       .  A
C154        C469   1.479       .  S
In157       O159   2.230       .  S
In157       O160   2.255       .  S
In157       O168   2.235       .  S
In157       O162   2.252       .  S
In157       O164   2.249       .  S
In157       O165   2.262       .  S
In157       O166   2.215       .  S
In157       O169   2.210       .  S
C158        C341   1.470       .  S
C158        O884   1.267       .  A
C158        O886   1.261       .  A
O159        C167   1.264       .  A
O160        C167   1.266       .  A
C161        C245   1.494       .  S
C161        O168   1.264       .  A
C161        O162   1.265       .  A
C163        C293   1.470       .  S
C163        O165   1.268       .  A
C163        O169   1.260       .  A
O164        C878   1.269   1_545  A
O166        C878   1.261   1_545  A
C167        C258   1.499       .  S
In170       O172   2.232       .  S
In170       O173   2.255       .  S
In170       O181   2.232       .  S
In170       O175   2.271       .  S
In170       O177   2.265       .  S
In170       O178   2.265       .  S
In170       O179   2.205       .  S
In170       O182   2.232       .  S
C171       C1029   1.482       .  S
C171        O177   1.269       .  A
C171        O179   1.262       .  A
O172        C180   1.262       .  A
O173        C180   1.267       .  A
C174        C226   1.500       .  S
C174        O181   1.260       .  A
C174        O175   1.268       .  A
C176        C354   1.477       .  S
C176        O178   1.266       .  A
C176        O182   1.261       .  A
C180        C261   1.478       .  S
In183       O185   2.227       .  S
In183       O186   2.242       .  S
In183       O194   2.228       .  S
In183       O188   2.250       .  S
In183       O190   2.257       .  S
In183       O191   2.259       .  S
In183       O192   2.196       .  S
In183       O195   2.207       .  S
C184        C677   1.487       .  S
C184        O190   1.270       .  A
C184        O192   1.262       .  A
O185        C193   1.262       .  A
O186        C193   1.268       .  A
C187        C242   1.487       .  S
C187        O194   1.264       .  A
C187        O188   1.267       .  A
C189        C629   1.472       .  S
C189        O191   1.269       .  A
C189        O195   1.262       .  A
C193        C210   1.481       .  S
In196       O198   2.218       .  S
In196       O199   2.244       .  S
In196       O207   2.242       .  S
In196       O201   2.261       .  S
In196       O203   2.262       .  S
In196       O204   2.270       .  S
In196       O205   2.231       .  S
In196       O208   2.204       .  S
C197        C613   1.487       .  S
C197        O203   1.269       .  A
C197        O205   1.261       .  A
O198        C206   1.263       .  A
O199        C206   1.266       .  A
C200        C229   1.494       .  S
C200        O207   1.261       .  A
C200        O201   1.268       .  A
C202        C661   1.481       .  S
C202        O204   1.268       .  A
C202        O208   1.261       .  A
C206        C213   1.490       .  S
C209        C210   1.403       .  A
C209        C214   1.408       .  A
C209        H216   1.083       .  S
C210        C211   1.416       .  A
C211        C212   1.406       .  A
C211        C218   1.520       .  S
C212        C213   1.408       .  A
C212        H217   1.083       .  S
C213        C214   1.421       .  A
C214        C215   1.519       .  S
C215        F219   1.385       .  S
C215        F220   1.383       .  S
C215        F221   1.384       .  S
C218        F222   1.383       .  S
C218        F223   1.382       .  S
C218        F224   1.385       .  S
C225        C226   1.407       .  A
C225        C230   1.413       .  A
C225        H232   1.082       .  S
C226        C227   1.426       .  A
C227        C228   1.411       .  A
C227        C234   1.521       .  S
C228        C229   1.402       .  A
C228        H233   1.082       .  S
C229        C230   1.421       .  A
C230        C231   1.519       .  S
C231        F235   1.384       .  S
C231        F236   1.383       .  S
C231        F237   1.383       .  S
C234        F238   1.384       .  S
C234        F239   1.384       .  S
C234        F240   1.385       .  S
C241        C242   1.405       .  A
C241        C246   1.409       .  A
C241        H248   1.085       .  S
C242        C243   1.417       .  A
C243        C244   1.409       .  A
C243        C250   1.519       .  S
C244        C245   1.408       .  A
C244        H249   1.085       .  S
C245        C246   1.421       .  A
C246        C247   1.519       .  S
C247        F251   1.385       .  S
C247        F252   1.383       .  S
C247        F253   1.383       .  S
C250        F254   1.383       .  S
C250        F255   1.383       .  S
C250        F256   1.385       .  S
C257        C258   1.409   1_565  A
C257        C262   1.408       .  A
C257        H264   1.082       .  S
C258        C979   1.425       .  A
C259        C260   1.410       .  A
C259        C978   1.419       .  A
C259        C266   1.518       .  S
C260        C261   1.403       .  A
C260        H265   1.084       .  S
C261        C982   1.412       .  A
C262        C981   1.416       .  A
C262        C263   1.520       .  S
C263        F267   1.385       .  S
C263        F268   1.384       .  S
C263        F269   1.382       .  S
C266        F270   1.382       .  S
C266        F271   1.383       .  S
C266        F272   1.385       .  S
C273        C274   1.405       .  A
C273        C278   1.409       .  A
C273        H280   1.082       .  S
C274        C275   1.422       .  A
C275        C276   1.409       .  A
C275        C282   1.521       .  S
C276        C277   1.405       .  A
C276        H281   1.082       .  S
C277        C278   1.420       .  A
C278        C279   1.520       .  S
C279        F283   1.384       .  S
C279        F284   1.383       .  S
C279        F285   1.384       .  S
C282        F286   1.382       .  S
C282        F287   1.383       .  S
C282        F288   1.385       .  S
C289        C290   1.409       .  A
C289        C294   1.405   1_556  A
C289        H296   1.081   1_556  S
C290       C1559   1.490       .  S
C290        C291   1.421       .  A
C291        C292   1.411       .  A
C291        C298   1.517       .  S
C292        C293   1.401   1_556  A
C292        H297   1.082       .  S
C293        C294   1.410       .  A
C294        C295   1.519       .  S
C295        F299   1.385       .  S
C295        F300   1.383       .  S
C295        F301   1.383       .  S
C298        F302   1.383       .  S
C298        F304   1.385       .  S
C298       F1743   1.383       .  S
F303       C1738   1.383       .  S
C305        C306   1.403       .  A
C305        C310   1.414       .  A
C305        H312   1.084       .  S
C306        C307   1.412       .  A
C307        C308   1.406       .  A
C307        C314   1.518   1_554  S
C308        C309   1.408       .  A
C308        H313   1.083       .  S
C309        C891   1.491   1_545  S
C309        C310   1.421       .  A
C310        C311   1.518       .  S
C311        F315   1.385       .  S
C311        F316   1.383       .  S
C311        F317   1.382   1_545  S
C314        F318   1.383       .  S
C314        F319   1.383       .  S
C314        F320   1.385       .  S
C321        C322   1.411       .  A
C321        C326   1.411       .  A
C321        H328   1.083       .  S
C322        C323   1.421       .  A
C323        C324   1.406       .  A
C323        C330   1.519       .  S
C324        C325   1.402       .  A
C324        H329   1.083       .  S
C325        C326   1.416       .  A
C326        C327   1.520       .  S
C327        F331   1.385       .  S
C327        F332   1.384       .  S
C327        F333   1.382       .  S
C330        F334   1.383       .  S
C330        F335   1.383       .  S
C330        F336   1.385       .  S
C337        C338   1.404       .  A
C337        C342   1.409       .  A
C337        H344   1.083       .  S
C338        C339   1.421       .  A
C339        C340   1.405       .  A
C339        C346   1.519       .  S
C340        C341   1.398       .  A
C340        H345   1.083       .  S
C341        C342   1.413       .  A
C342        C343   1.517       .  S
C343        F347   1.383       .  S
C343        F348   1.383       .  S
C343        F349   1.384       .  S
C346        F350   1.382   1_554  S
C346        F351   1.383       .  S
C346        F352   1.385       .  S
C353        C354   1.398       .  A
C353        C358   1.407   1_554  A
C353        H360   1.086       .  S
C354        C355   1.416   1_554  A
C355        C356   1.412       .  A
C355        C362   1.516       .  S
C356        C357   1.405       .  A
C356        H361   1.084       .  S
C357        C358   1.421       .  A
C358        C359   1.518   1_556  S
C359        F363   1.384   1_554  S
C359       F1804   1.382       .  S
C359       F1805   1.385       .  S
C362        F366   1.383       .  S
C362        F367   1.380   1_556  S
C362        F368   1.384       .  S
F364       C1799   1.382       .  S
F365       C1799   1.384       .  S
C369        C370   1.410       .  A
C369        C374   1.410       .  A
C369        H376   1.083       .  S
C370        C371   1.422       .  A
C371        C372   1.413       .  A
C371        C378   1.519       .  S
C372        C373   1.407       .  A
C372        H377   1.084       .  S
C373        C374   1.416       .  A
C374        C375   1.519       .  S
C375        F379   1.385       .  S
C375        F380   1.383       .  S
C375        F381   1.383       .  S
C378        F382   1.383       .  S
C378        F383   1.383       .  S
C378        F384   1.385       .  S
C385        C386   1.410       .  A
C385        C390   1.408       .  A
C385        H392   1.082       .  S
C386       C1827   1.425       .  A
C387        C388   1.412       .  A
C387       C1826   1.425       .  A
C387        C394   1.519   1_556  S
C388        C389   1.402   1_655  A
C388        H393   1.083       .  S
C389       C1830   1.415       .  A
C390       C1829   1.416       .  A
C390        C391   1.520       .  S
C391        F395   1.385       .  S
C391        F396   1.382       .  S
C391        F397   1.384       .  S
C394        F398   1.384   1_554  S
C394        F399   1.383       .  S
C394        F400   1.385       .  S
C401        C406   1.414   1_655  A
C401       C1842   1.402       .  A
C401        H408   1.082       .  S
C402        C403   1.415       .  A
C402       C1841   1.405       .  A
C403        C404   1.403       .  A
C403        C410   1.520       .  S
C404       C1845   1.407       .  A
C404        H409   1.082       .  S
C405        C406   1.426       .  A
C405       C1844   1.412       .  A
C406        C407   1.519       .  S
C407        F411   1.384       .  S
C407        F412   1.383       .  S
C407        F413   1.385   1_455  S
C410        F414   1.384       .  S
C410        F415   1.382       .  S
C410        F416   1.385       .  S
C417        C418   1.402       .  A
C417        C422   1.407       .  A
C417        H424   1.083       .  S
C418        C419   1.418       .  A
C419        C420   1.402       .  A
C419        C426   1.518       .  S
C420        C421   1.398       .  A
C420        H425   1.085       .  S
C421        C422   1.418       .  A
C422        C423   1.520       .  S
C423        F427   1.384   1_545  S
C423        F428   1.384   1_545  S
C423        F429   1.382       .  S
C426        F430   1.382       .  S
C426        F431   1.383       .  S
C426        F432   1.383       .  S
C433        C434   1.402       .  A
C433        C438   1.407       .  A
C433        H440   1.083       .  S
C434        C435   1.419       .  A
C435        C436   1.409       .  A
C435        C442   1.518       .  S
C436        C437   1.401       .  A
C436        H441   1.083       .  S
C437        C438   1.417       .  A
C438        C439   1.519       .  S
C439        F443   1.384       .  S
C439        F444   1.383       .  S
C439        F445   1.384       .  S
C442        F446   1.382       .  S
C442        F447   1.384       .  S
C442        F448   1.385       .  S
C449        C450   1.406       .  A
C449        C454   1.410       .  A
C449        H456   1.081       .  S
C450        C451   1.426       .  A
C451        C452   1.413       .  A
C451        C458   1.521       .  S
C452        C453   1.404       .  A
C452        H457   1.081       .  S
C453        C454   1.421       .  A
C454        C455   1.520       .  S
C455        F459   1.385       .  S
C455        F460   1.382       .  S
C455        F461   1.383       .  S
C458        F462   1.383       .  S
C458        F463   1.384       .  S
C458        F464   1.385       .  S
C465        C466   1.405       .  A
C465        C470   1.414       .  A
C465       H1192   1.083       .  S
C466        C774   1.472   1_545  S
C466        C467   1.412       .  A
C467        C468   1.401       .  A
C467        C474   1.517   1_545  S
C468        C469   1.402       .  A
C468        H473   1.084       .  S
C469        C470   1.418       .  A
C470        C471   1.517       .  S
C471        F475   1.385       .  S
C471        F476   1.383       .  S
C471        F477   1.383       .  S
H472       C1185   1.084       .  S
C474        F478   1.385       .  S
C474        F479   1.383       .  S
C474        F480   1.380       .  S
C481        C482   1.408       .  A
C481        C486   1.401       .  A
C481        H488   1.083       .  S
C482        C483   1.425       .  A
C483        C484   1.415       .  A
C483        C490   1.517       .  S
C484        C485   1.402       .  A
C484        H489   1.083       .  S
C485        C486   1.409       .  A
C486        C487   1.518       .  S
C487        F491   1.384       .  S
C487        F492   1.383       .  S
C487        F493   1.383       .  S
C490        F494   1.383       .  S
C490        F495   1.383       .  S
C490        F496   1.385       .  S
C497        C498   1.402       .  A
C497        C502   1.410       .  A
C497        H504   1.085       .  S
C498        C499   1.416       .  A
C499        C500   1.414       .  A
C499        C506   1.518       .  S
C500        C501   1.412       .  A
C500        H505   1.084       .  S
C501        C502   1.424       .  A
C502        C503   1.520       .  S
C503        F507   1.385       .  S
C503        F508   1.384       .  S
C503        F509   1.383       .  S
C506        F510   1.383       .  S
C506        F511   1.383       .  S
C506        F512   1.384       .  S
C513        C518   1.410   1_655  A
C513       C1954   1.405   1_565  A
C513        H520   1.082   1_565  S
C514       C1953   1.403   1_545  A
C514       C1235   1.412       .  A
C515        C516   1.408       .  A
C515       C1234   1.421       .  A
C515        C522   1.520       .  S
C516       C1957   1.404       .  A
C516        H521   1.082       .  S
C517       C1956   1.408       .  A
C517       C1238   1.425       .  A
C518       C1237   1.421       .  A
C518        C519   1.520       .  S
C519        F523   1.385       .  S
C519        F524   1.384       .  S
C519        F525   1.382       .  S
C522        F526   1.384       .  S
C522        F527   1.382       .  S
C522        F528   1.385       .  S
C529        C530   1.401       .  A
C529        C534   1.412       .  A
C529        H536   1.084       .  S
C530        C531   1.410       .  A
C531        C532   1.403       .  A
C531        C538   1.519       .  S
C532        C533   1.407       .  A
C532        H537   1.084       .  S
C533        C534   1.422       .  A
C534        C535   1.517       .  S
C535        F539   1.384       .  S
C535        F540   1.383       .  S
C535        F541   1.383       .  S
C538        F542   1.383       .  S
C538        F543   1.383       .  S
C538        F544   1.384       .  S
C545        C546   1.404       .  A
C545        C550   1.409       .  A
C545        H552   1.084       .  S
C546        C547   1.414       .  A
C547        C548   1.407       .  A
C547        C554   1.517       .  S
C548        C549   1.405       .  A
C548        H553   1.084       .  S
C549        C550   1.414       .  A
C550        C551   1.516       .  S
C551        F555   1.385       .  S
C551        F556   1.383       .  S
C551        F557   1.383       .  S
C554        F558   1.383       .  S
C554        F559   1.383       .  S
C554        F560   1.385       .  S
C561        C562   1.400       .  A
C561        C566   1.405       .  A
C561        H568   1.084       .  S
C562        C563   1.418       .  A
C563        C564   1.408       .  A
C563        C570   1.519       .  S
C564        C565   1.402       .  A
C564        H569   1.083       .  S
C565        C566   1.416       .  A
C566        C567   1.518       .  S
C567        F571   1.382       .  S
C567        F572   1.384       .  S
C567        F573   1.384       .  S
C570        F574   1.382       .  S
C570        F575   1.384       .  S
C570        F576   1.385       .  S
C577        C578   1.404       .  A
C577        C582   1.408       .  A
C577        H584   1.081       .  S
C578        C579   1.422       .  A
C579        C580   1.408       .  A
C579        C586   1.519       .  S
C580        C581   1.399       .  A
C580        H585   1.080       .  S
C581        C582   1.414       .  A
C582        C583   1.518       .  S
C583        F587   1.384       .  S
C583        F588   1.384       .  S
C583        F589   1.382       .  S
C586        F590   1.384       .  S
C586        F591   1.383       .  S
C586        F592   1.385       .  S
C593        C594   1.409   1_565  A
C593       C1318   1.404       .  A
C593        H600   1.082   1_565  S
C594       C1315   1.425   1_545  A
C595        C596   1.415       .  A
C595       C1314   1.425       .  A
C595        C602   1.520       .  S
C596        C597   1.405       .  A
C596        H601   1.083       .  S
C597        C598   1.415       .  A
C598       C1313   1.403       .  A
C598       C1319   1.520       .  S
C599       C1318   1.520       .  S
C599        F603   1.385       .  S
C599       F1324   1.382       .  S
C599       F1325   1.384       .  S
C602        F606   1.383       .  S
C602        F607   1.384       .  S
C602        F608   1.385       .  S
F604       C1319   1.382       .  S
F605       C1319   1.384       .  S
C609        C610   1.400       .  A
C609        C614   1.410       .  A
C609        H616   1.086       .  S
C610        C611   1.417       .  A
C611        C612   1.410       .  A
C611        C618   1.517       .  S
C612        C613   1.404       .  A
C612        H617   1.084       .  S
C613        C614   1.421       .  A
C614        C615   1.517       .  S
C615        F619   1.385       .  S
C615        F620   1.383       .  S
C615        F621   1.384       .  S
C618        F622   1.381       .  S
C618        F623   1.383       .  S
C618        F624   1.385       .  S
C625        C626   1.401       .  A
C625        C630   1.407       .  A
C625        H632   1.083       .  S
C626       C1455   1.478       .  S
C626        C627   1.420       .  A
C627        C628   1.407       .  A
C627        C634   1.519       .  S
C628        C629   1.399       .  A
C628        H633   1.084       .  S
C629        C630   1.416       .  A
C630        C631   1.518       .  S
C631        F635   1.384       .  S
C631        F636   1.383       .  S
C631        F637   1.380       .  S
C634        F638   1.384       .  S
C634        F639   1.384       .  S
C634        F640   1.382       .  S
C641        C642   1.405       .  A
C641        C646   1.414       .  A
C641        H648   1.084       .  S
C642        C643   1.418       .  A
C643        C644   1.412       .  A
C643        C650   1.519       .  S
C644        C645   1.410       .  A
C644        H649   1.083       .  S
C645        C646   1.424       .  A
C646        C647   1.519       .  S
C647        F651   1.385       .  S
C647        F652   1.384       .  S
C647        F653   1.383       .  S
C650        F654   1.384       .  S
C650        F655   1.383       .  S
C650        F656   1.384       .  S
C657        C658   1.403       .  A
C657        C662   1.412       .  A
C657        H664   1.094       .  S
C658        C659   1.412       .  A
C659        C660   1.402       .  A
C659        C666   1.518       .  S
C660        C661   1.404       .  A
C660        H665   1.092       .  S
C661        C662   1.417       .  A
C662        C663   1.517       .  S
C663        F667   1.384       .  S
C663        F668   1.382       .  S
C663        F669   1.383       .  S
C666        F672   1.385       .  S
C666       F2110   1.383   1_455  S
C666       F2111   1.383       .  S
F670       C2106   1.383       .  S
F671       C2106   1.383       .  S
C673        C674   1.403       .  A
C673        C678   1.414       .  A
C673        H680   1.084       .  S
C674        C675   1.409       .  A
C675        C676   1.400       .  A
C675        C682   1.519       .  S
C676        C677   1.407       .  A
C676        H681   1.083       .  S
C677        C678   1.422       .  A
C678        C679   1.519       .  S
C679        F683   1.384       .  S
C679        F684   1.383       .  S
C679        F685   1.383       .  S
C682        F686   1.383       .  S
C682        F687   1.383       .  S
C682        F688   1.384       .  S
C689        C690   1.409       .  A
C689        C694   1.413       .  A
C689        H696   1.083       .  S
C690        C691   1.421       .  A
C691        C692   1.413       .  A
C691        C698   1.518       .  S
C692        C693   1.408       .  A
C692        H697   1.082       .  S
C693        C694   1.420       .  A
C694        C695   1.519       .  S
C695        F699   1.385       .  S
C695        F700   1.383       .  S
C695        F701   1.383       .  S
C698        F702   1.384       .  S
C698        F703   1.383       .  S
C698        F704   1.385       .  S
C705        C706   1.410       .  A
C705       C1430   1.408       .  A
C705        H712   1.082       .  S
C706       C2147   1.426       .  A
C707        C708   1.414   1_655  A
C707       C2146   1.426       .  A
C707        C714   1.520       .  S
C708       C1429   1.403       .  A
C708        H713   1.083       .  S
C709       C1428   1.402   1_455  A
C709       C2150   1.413       .  A
C710       C1425   1.402   1_545  A
C710       C2149   1.410       .  A
C710        C711   1.520       .  S
C711        F715   1.384   1_545  S
C711        F716   1.382       .  S
C711        F717   1.383       .  S
C714        F718   1.383       .  S
C714        F719   1.384       .  S
C714        F720   1.385       .  S
In721       O723   2.201       .  S
In721       O724   2.263       .  S
In721       O732   2.240       .  S
In721       O726   2.261       .  S
In721       O728   2.261       .  S
In721       O729   2.258       .  S
In721       O730   2.222       .  S
In721       O733   2.212       .  S
C722       C1378   1.474       .  S
C722       O2168   1.266       .  A
C722       O2170   1.259       .  A
O723        C731   1.259       .  A
O724        C731   1.268       .  A
C725       C1410   1.498       .  S
C725        O732   1.264       .  A
C725        O726   1.266       .  A
C727       C1426   1.494       .  S
C727        O729   1.266       .  A
C727        O733   1.263       .  A
O728       C2162   1.267       .  A
O730       C2162   1.260       .  A
C731       C1394   1.477       .  S
In734       O736   2.208       .  S
In734       O737   2.269       .  S
In734       O745   2.251       .  S
In734       O739   2.260       .  S
In734       O741   2.261       .  S
In734       O742   2.263       .  S
In734       O743   2.224       .  S
In734       O746   2.221       .  S
C735       C2786   1.481       .  S
C735        O741   1.269   1_655  A
C735        O743   1.261   1_655  A
O736        C744   1.260       .  A
O737        C744   1.270       .  A
C738       C1365   1.508       .  S
C738        O745   1.265       .  A
C738        O739   1.267       .  A
C740       C1429   1.483       .  S
C740        O742   1.269       .  A
C740        O746   1.262       .  A
C744       C1330   1.480       .  S
In747       O749   2.211       .  S
In747       O750   2.257       .  S
In747       O758   2.263       .  S
In747       O752   2.273       .  S
In747       O754   2.278       .  S
In747       O755   2.255       .  S
In747       O756   2.218       .  S
In747       O759   2.223       .  S
C748       C1298   1.484       .  S
C748        O754   1.269       .  A
C748        O756   1.259       .  A
O749        C757   1.259       .  A
O750        C757   1.266       .  A
C751       C1362   1.503       .  S
C751        O758   1.262       .  A
C751        O752   1.266       .  A
C753       C1314   1.497       .  S
C753        O755   1.265       .  A
C753        O759   1.264       .  A
C757       C1282   1.473       .  S
In760       O762   2.208       .  S
In760       O763   2.262       .  S
In760       O771   2.250       .  S
In760       O765   2.255       .  S
In760       O767   2.269       .  S
In760       O768   2.252       .  S
In760       O769   2.214       .  S
In760       O772   2.220       .  S
C761       C1266   1.473       .  S
C761        O767   1.268       .  A
C761        O769   1.259       .  A
O762        C770   1.261       .  A
O763        C770   1.267       .  A
C764       C1413   1.497       .  S
C764        O771   1.264       .  A
C764        O765   1.267       .  A
C766       C1317   1.482       .  S
C766        O768   1.268       .  A
C766        O772   1.262       .  A
C770       C1250   1.473       .  S
In773       O775   2.222       .  S
In773       O776   2.243       .  S
In773       O784   2.238       .  S
In773       O778   2.259       .  S
In773       O780   2.267       .  S
In773       O781   2.256       .  S
In773       O782   2.216       .  S
In773       O785   2.206       .  S
C774        O780   1.268       .  A
C774        O782   1.259       .  A
O775        C783   1.263       .  A
O776        C783   1.264       .  A
C777       C1218   1.491       .  S
C777        O784   1.263       .  A
C777        O778   1.267       .  A
C779       C1205   1.468       .  S
C779        O781   1.266       .  A
C779        O785   1.261       .  A
C783       C1237   1.487       .  S
In786       O788   2.227       .  S
In786       O789   2.260       .  S
In786       O797   2.245       .  S
In786       O791   2.256       .  S
In786       O793   2.267       .  S
In786       O794   2.265       .  S
In786       O795   2.218       .  S
In786       O798   2.219       .  S
C787       C1154   1.480       .  S
O788        C796   1.261       .  A
O789        C796   1.268       .  A
C790       C1170   1.500       .  S
C790        O797   1.261       .  A
C790        O791   1.268       .  A
C792       C1141   1.477       .  S
C792        O794   1.267       .  A
C792        O798   1.260       .  A
C796       C1234   1.492       .  S
In799       O801   2.234       .  S
In799       O802   2.263       .  S
In799       O810   2.236       .  S
In799       O804   2.268       .  S
In799       O806   2.270       .  S
In799       O807   2.265       .  S
In799       O808   2.205       .  S
In799       O811   2.222       .  S
C800       C1253   1.493       .  S
C800        O806   1.269       .  A
C800        O808   1.261       .  A
O801        C809   1.261       .  A
O802        C809   1.267       .  A
C803       C1173   1.492       .  S
C803        O810   1.261       .  A
C803        O804   1.268       .  A
C805       C1301   1.478       .  S
C805        O807   1.268       .  A
C805        O811   1.261       .  A
C809       C1122   1.488       .  S
In812       O814   2.232       .  S
In812       O815   2.248       .  S
In812       O823   2.243       .  S
In812       O817   2.252       .  S
In812       O819   2.255       .  S
In812       O820   2.275       .  S
In812       O821   2.214       .  S
In812       O824   2.204       .  S
C813       C1285   1.473       .  S
C813        O819   1.268       .  A
C813        O821   1.261       .  A
O814        C822   1.263       .  A
O815        C822   1.267       .  A
C816       C1221   1.498       .  S
C816        O823   1.263       .  A
C816        O817   1.265       .  A
C818       C1269   1.482       .  S
C818        O820   1.268       .  A
C818        O824   1.260       .  A
C822       C1125   1.494       .  S
In825       O827   2.228       .  S
In825       O828   2.258       .  S
In825       O836   2.236       .  S
In825       O830   2.273       .  S
In825       O832   2.275       .  S
In825       O833   2.254       .  S
In825       O834   2.223       .  S
In825       O837   2.229       .  S
C826       C1077   1.478       .  S
C826       O2272   1.271       .  A
C826       O2274   1.260   1_455  A
O827        C835   1.261       .  A
O828        C835   1.267       .  A
C829       C1090   1.500       .  S
C829        O836   1.262       .  A
C829        O830   1.268       .  A
C831       C1106   1.499       .  S
C831        O833   1.267       .  A
C831        O837   1.265       .  A
O832       C2266   1.271       .  A
O834       C2266   1.261       .  A
C835       C1058   1.477   1_556  S
In838       O840   2.217       .  S
In838       O841   2.258   1_556  S
In838       O849   2.248       .  S
In838       O843   2.258       .  S
In838       O845   2.272   1_455  S
In838       O846   2.254       .  S
In838       O847   2.222       .  S
In838       O850   2.224       .  S
C839       C2450   1.491       .  S
C839        O845   1.269       .  A
C839        O847   1.262   1_655  A
O840        C848   1.261       .  A
O841        C848   1.267   1_554  A
C842       C1042   1.497       .  S
C842        O849   1.263       .  A
C842        O843   1.267       .  A
C844       C1109   1.482       .  S
C844        O846   1.267       .  A
C844        O850   1.261       .  A
C848       C1026   1.471   1_556  S
In851       O853   2.213       .  S
In851       O854   2.258       .  S
In851       O862   2.241       .  S
In851       O856   2.264       .  S
In851       O858   2.262       .  S
In851       O859   2.254       .  S
In851       O860   2.204       .  S
In851       O863   2.228       .  S
C852       C1202   1.491       .  S
C852        O858   1.269       .  A
C852        O860   1.262       .  A
O853        C861   1.261       .  A
O854        C861   1.269       .  A
C855       C1093   1.498       .  S
C855        O862   1.264       .  A
C855        O856   1.267       .  A
C857        C994   1.489       .  S
C857        O859   1.268       .  A
C857        O863   1.261       .  A
C861       C1157   1.475       .  S
In864       O866   2.223       .  S
In864       O867   2.261       .  S
In864       O875   2.247       .  S
In864       O869   2.274       .  S
In864       O871   2.277       .  S
In864       O872   2.255       .  S
In864       O873   2.220       .  S
In864       O876   2.222       .  S
C865       C1138   1.483       .  S
C865        O871   1.269       .  A
C865        O873   1.258       .  A
O866        C874   1.260       .  A
O867        C874   1.265       .  A
C868       C1045   1.501       .  S
C868        O875   1.261       .  A
C868        O869   1.266       .  A
C870        C997   1.493       .  S
C870        O872   1.264       .  A
C870        O876   1.263       .  A
C874       C1189   1.474       .  S
In877       O879   2.236       .  S
In877       O880   2.257       .  S
In877       O888   2.236       .  S
In877       O882   2.255       .  S
In877       O884   2.252       .  S
In877       O885   2.269       .  S
In877       O886   2.215       .  S
In877       O889   2.211       .  S
C878       C1061   1.473       .  S
O879        C887   1.263       .  A
O880        C887   1.266       .  A
C881        C965   1.498       .  S
C881        O888   1.263       .  A
C881        O882   1.265       .  A
C883       C1013   1.474       .  S
C883        O885   1.268       .  A
C883        O889   1.259       .  A
C887        C978   1.488       .  S
In890       O892   2.232       .  S
In890       O893   2.257       .  S
In890       O901   2.252       .  S
In890       O895   2.250       .  S
In890       O897   2.273       .  S
In890       O898   2.269       .  S
In890       O899   2.217       .  S
In890       O902   2.218       .  S
C891        O897   1.269       .  A
C891        O899   1.261       .  A
O892        C900   1.261       .  A
O893        C900   1.268       .  A
C894        C946   1.499       .  S
C894        O901   1.263       .  A
C894        O895   1.268       .  A
C896       C1074   1.475       .  S
C896        O898   1.268       .  A
C896        O902   1.260       .  A
C900        C981   1.486       .  S
In903       O905   2.217       .  S
In903       O906   2.250       .  S
In903       O914   2.228       .  S
In903       O908   2.248       .  S
In903       O910   2.265       .  S
In903       O911   2.258       .  S
In903       O912   2.188       .  S
In903       O915   2.210       .  S
C904       C1397   1.493       .  S
C904        O910   1.271       .  A
C904        O912   1.262       .  A
O905        C913   1.262       .  A
O906        C913   1.269       .  A
C907        C962   1.485       .  S
C907        O914   1.264       .  A
C907        O908   1.268       .  A
C909       C1349   1.475       .  S
C909        O911   1.270       .  A
C909        O915   1.262       .  A
C913        C930   1.483       .  S
In916       O918   2.200       .  S
In916       O919   2.257       .  S
In916       O927   2.245       .  S
In916       O921   2.266       .  S
In916       O923   2.253       .  S
In916       O924   2.267       .  S
In916       O925   2.236       .  S
In916       O928   2.215       .  S
C917       C1333   1.476       .  S
C917        O923   1.266       .  A
C917        O925   1.260       .  A
O918        C926   1.261       .  A
O919        C926   1.265       .  A
C920        C949   1.495       .  S
C920        O927   1.260       .  A
C920        O921   1.265       .  A
C922       C1381   1.480       .  S
C922        O924   1.265       .  A
C922        O928   1.260       .  A
C926        C933   1.487       .  S
C929        C930   1.405       .  A
C929        C934   1.411       .  A
C929        H936   1.083       .  S
C930        C931   1.417       .  A
C931        C932   1.401       .  A
C931        C938   1.519       .  S
C932        C933   1.404       .  A
C932        H937   1.082       .  S
C933        C934   1.421       .  A
C934        C935   1.519       .  S
C935        F939   1.385       .  S
C935        F940   1.383       .  S
C935        F941   1.383       .  S
C938        F942   1.383       .  S
C938        F943   1.381       .  S
C938        F944   1.386       .  S
C945        C946   1.405       .  A
C945        C950   1.409       .  A
C945        H952   1.082       .  S
C946        C947   1.425       .  A
C947        C948   1.414       .  A
C947        C954   1.520       .  S
C948        C949   1.405       .  A
C948        H953   1.081       .  S
C949        C950   1.421       .  A
C950        C951   1.518       .  S
C951        F955   1.385       .  S
C951        F956   1.382       .  S
C951        F957   1.383       .  S
C954        F958   1.383       .  S
C954        F959   1.383       .  S
C954        F960   1.385       .  S
C961        C962   1.403       .  A
C961        C966   1.411       .  A
C961        H968   1.085       .  S
C962        C963   1.414       .  A
C963        C964   1.408       .  A
C963        C970   1.518       .  S
C964        C965   1.410       .  A
C964        H969   1.085       .  S
C965        C966   1.424       .  A
C966        C967   1.519       .  S
C967        F971   1.385       .  S
C967        F972   1.384       .  S
C967        F973   1.383       .  S
C970        F974   1.383       .  S
C970        F975   1.381       .  S
C970        F976   1.384       .  S
C977        C978   1.408       .  A
C977        C982   1.409       .  A
C977        H984   1.083       .  S
C979        C980   1.412   1_545  A
C979        C986   1.519       .  S
C980        C981   1.403       .  A
C980        H985   1.083       .  S
C982        C983   1.518       .  S
C983        F987   1.385       .  S
C983        F988   1.382       .  S
C983        F989   1.383       .  S
C986        F990   1.383   1_554  S
C986        F991   1.383       .  S
C986        F992   1.385   1_554  S
C993        C994   1.406       .  A
C993        C998   1.412       .  A
C993       H1000   1.082       .  S
C994        C995   1.419       .  A
C995        C996   1.405       .  A
C995       C1002   1.520       .  S
C996        C997   1.406       .  A
C996       H1001   1.081       .  S
C997        C998   1.423       .  A
C998        C999   1.520       .  S
C999       F1003   1.385       .  S
C999       F1004   1.383       .  S
C999       F1005   1.383       .  S
C1002      F1006   1.382       .  S
C1002      F1007   1.383       .  S
C1002      F1008   1.385       .  S
C1009      C1010   1.410   1_554  A
C1009      C1014   1.405       .  A
C1009      H1016   1.081       .  S
C1010      C2279   1.496       .  S
C1010      C1011   1.424       .  A
C1011      C1012   1.414       .  A
C1011      C1018   1.517       .  S
C1012      C1013   1.401   1_556  A
C1012      H1017   1.081       .  S
C1013      C1014   1.411       .  A
C1014      C1015   1.521       .  S
C1015      F1019   1.384       .  S
C1015      F1020   1.383       .  S
C1015      F1021   1.384       .  S
C1018      F1022   1.383       .  S
C1018      F2463   1.383       .  S
C1018      F1024   1.384       .  S
F1023      C2458   1.383       .  S
C1025      C1026   1.402       .  A
C1025      C1030   1.411       .  A
C1025      H1032   1.084       .  S
C1026      C1027   1.411       .  A
C1027      C1028   1.404       .  A
C1027      C1034   1.518   1_554  S
C1028      C1029   1.406       .  A
C1028      H1033   1.084       .  S
C1029      C1030   1.419       .  A
C1030      C1031   1.518       .  S
C1031      F1035   1.385       .  S
C1031      F1036   1.382       .  S
C1031      F1037   1.382       .  S
C1034      F1038   1.383       .  S
C1034      F1039   1.383       .  S
C1034      F1040   1.385       .  S
C1041      C1042   1.408       .  A
C1041      C1046   1.414       .  A
C1041      H1048   1.084       .  S
C1042      C1043   1.418       .  A
C1043      C1044   1.412       .  A
C1043      C1050   1.519       .  S
C1044      C1045   1.409       .  A
C1044      H1049   1.083       .  S
C1045      C1046   1.421       .  A
C1046      C1047   1.519       .  S
C1047      F1051   1.385       .  S
C1047      F1052   1.384       .  S
C1047      F1053   1.383       .  S
C1050      F1054   1.384       .  S
C1050      F1055   1.382       .  S
C1050      F1056   1.384       .  S
C1057      C1058   1.402       .  A
C1057      C1062   1.407       .  A
C1057      H1064   1.085   1_554  S
C1058      C1059   1.416       .  A
C1059      C1060   1.406       .  A
C1059      C1066   1.518       .  S
C1060      C1061   1.401       .  A
C1060      H1065   1.083       .  S
C1061      C1062   1.420       .  A
C1062      C1063   1.521       .  S
C1063      F1067   1.383   1_554  S
C1063      F1068   1.383       .  S
C1063      F1069   1.384       .  S
C1066      F1070   1.383   1_554  S
C1066      F1071   1.383       .  S
C1066      F1072   1.385       .  S
C1073      C1074   1.400       .  A
C1073      C1078   1.408   1_554  A
C1073      H1080   1.085       .  S
C1074      C1075   1.416   1_554  A
C1075      C1076   1.407       .  A
C1075      C1082   1.516       .  S
C1076      C1077   1.401       .  A
C1076      H1081   1.086       .  S
C1077      C1078   1.420       .  A
C1078      C1079   1.519       .  S
C1079      F1083   1.384       .  S
C1079      F2524   1.382   1_556  S
C1079      F2525   1.384       .  S
C1082      F1086   1.383       .  S
C1082      F1087   1.381   1_556  S
C1082      F1088   1.384       .  S
F1084      C2519   1.382   1_554  S
F1085      C2519   1.385       .  S
C1089      C1090   1.409       .  A
C1089      C1094   1.412       .  A
C1089      H1096   1.083       .  S
C1090      C1091   1.420       .  A
C1091      C1092   1.413       .  A
C1091      C1098   1.519       .  S
C1092      C1093   1.408       .  A
C1092      H1097   1.083       .  S
C1093      C1094   1.420       .  A
C1094      C1095   1.519       .  S
C1095      F1099   1.385       .  S
C1095      F1100   1.384       .  S
C1095      F1101   1.383       .  S
C1098      F1102   1.384       .  S
C1098      F1103   1.383       .  S
C1098      F1104   1.385       .  S
C1105      C1106   1.410       .  A
C1105      C1110   1.407       .  A
C1105      H1112   1.082       .  S
C1106      C2547   1.425       .  A
C1107      C2546   1.425       .  A
C1107      C1108   1.411       .  A
C1107      C1114   1.520   1_556  S
C1108      C1109   1.402   1_655  A
C1108      H1113   1.083   1_556  S
C1109      C2550   1.415       .  A
C1110      C2549   1.414       .  A
C1110      C1111   1.519       .  S
C1111      F1115   1.385       .  S
C1111      F1116   1.382       .  S
C1111      F1117   1.383       .  S
C1114      F1118   1.384       .  S
C1114      F1119   1.383       .  S
C1114      F1120   1.385       .  S
C1121      C2562   1.404       .  A
C1121      C1126   1.411   1_655  A
C1121      H1128   1.082       .  S
C1122      C2561   1.404       .  A
C1122      C1123   1.416       .  A
C1123      C1124   1.407       .  A
C1123      C1130   1.519       .  S
C1124      C2565   1.409       .  A
C1124      H1129   1.082       .  S
C1125      C2564   1.407       .  A
C1125      C1126   1.422       .  A
C1126      C1127   1.519       .  S
C1127      F1131   1.383       .  S
C1127      F1132   1.383       .  S
C1127      F1133   1.384       .  S
C1130      F1134   1.384       .  S
C1130      F1135   1.382       .  S
C1130      F1136   1.385       .  S
C1137      C1138   1.403       .  A
C1137      C1142   1.408       .  A
C1137      H1144   1.083       .  S
C1138      C1139   1.422       .  A
C1139      C1140   1.410       .  A
C1139      C1146   1.520       .  S
C1140      C1141   1.400       .  A
C1140      H1145   1.084       .  S
C1141      C1142   1.416       .  A
C1142      C1143   1.518       .  S
C1143      F1147   1.384       .  S
C1143      F1148   1.384       .  S
C1143      F1149   1.382       .  S
C1146      F1150   1.383       .  S
C1146      F1151   1.381       .  S
C1146      F1152   1.385       .  S
C1153      C1154   1.404       .  A
C1153      C1158   1.409       .  A
C1153      H1160   1.082       .  S
C1154      C1155   1.418       .  A
C1155      C1156   1.406       .  A
C1155      C1162   1.517       .  S
C1156      C1157   1.400       .  A
C1156      H1161   1.083       .  S
C1157      C1158   1.418       .  A
C1158      C1159   1.520       .  S
C1159      F1163   1.385       .  S
C1159      F1164   1.381       .  S
C1159      F1165   1.383       .  S
C1162      F1166   1.382       .  S
C1162      F1167   1.384       .  S
C1162      F1168   1.385       .  S
C1169      C1170   1.405       .  A
C1169      C1174   1.409       .  A
C1169      H1176   1.081       .  S
C1170      C1171   1.427       .  A
C1171      C1172   1.414       .  A
C1171      C1178   1.521       .  S
C1172      C1173   1.404       .  A
C1172      H1177   1.082       .  S
C1173      C1174   1.420       .  A
C1174      C1175   1.520       .  S
C1175      F1179   1.385       .  S
C1175      F1180   1.382       .  S
C1175      F1181   1.384       .  S
C1178      F1182   1.383       .  S
C1178      F1183   1.384       .  S
C1178      F1184   1.385       .  S
C1185      C1186   1.405       .  A
C1185      C1190   1.407       .  A
C1186      C1187   1.415       .  A
C1187      C1188   1.407       .  A
C1187      C1194   1.518       .  S
C1188      C1189   1.403       .  A
C1188      H1193   1.084       .  S
C1189      C1190   1.414       .  A
C1190      C1191   1.518       .  S
C1191      F1195   1.385       .  S
C1191      F1196   1.383       .  S
C1191      F1197   1.383       .  S
C1194      F1198   1.384       .  S
C1194      F1199   1.383       .  S
C1194      F1200   1.383       .  S
C1201      C1202   1.410       .  A
C1201      C1206   1.402       .  A
C1201      H1208   1.083       .  S
C1202      C1203   1.423       .  A
C1203      C1204   1.410       .  A
C1203      C1210   1.517       .  S
C1204      C1205   1.400       .  A
C1204      H1209   1.083       .  S
C1205      C1206   1.410       .  A
C1206      C1207   1.520       .  S
C1207      F1211   1.384       .  S
C1207      F1212   1.383       .  S
C1207      F1213   1.383       .  S
C1210      F1214   1.383       .  S
C1210      F1215   1.383       .  S
C1210      F1216   1.385       .  S
C1217      C1218   1.405       .  A
C1217      C1222   1.410       .  A
C1217      H1224   1.079       .  S
C1218      C1219   1.416       .  A
C1219      C1220   1.411       .  A
C1219      C1226   1.518       .  S
C1220      C1221   1.410       .  A
C1220      H1225   1.081       .  S
C1221      C1222   1.422       .  A
C1222      C1223   1.520       .  S
C1223      F1227   1.385       .  S
C1223      F1228   1.383       .  S
C1223      F1229   1.383       .  S
C1226      F1230   1.382       .  S
C1226      F1231   1.384       .  S
C1226      F1232   1.384       .  S
C1233      C2674   1.402       .  A
C1233      C1238   1.412   1_655  A
C1233      H1240   1.082       .  S
C1234      C2673   1.406       .  A
C1235      C1236   1.403   1_545  A
C1235      C1242   1.520       .  S
C1236      C2677   1.409       .  A
C1236      H1241   1.081   1_565  S
C1237      C2676   1.404       .  A
C1238      C1239   1.519       .  S
C1239      F1243   1.385       .  S
C1239      F1244   1.384       .  S
C1239      F1245   1.383       .  S
C1242      F1246   1.384       .  S
C1242      F1247   1.381       .  S
C1242      F1248   1.385       .  S
C1249      C1250   1.402       .  A
C1249      C1254   1.414       .  A
C1249      H1256   1.084       .  S
C1250      C1251   1.411       .  A
C1251      C1252   1.401       .  A
C1251      C1258   1.520       .  S
C1252      C1253   1.408       .  A
C1252      H1257   1.083       .  S
C1253      C1254   1.423       .  A
C1254      C1255   1.517       .  S
C1255      F1259   1.385       .  S
C1255      F1260   1.383       .  S
C1255      F1261   1.383       .  S
C1258      F1262   1.383       .  S
C1258      F1263   1.382       .  S
C1258      F1264   1.384       .  S
C1265      C1266   1.405       .  A
C1265      C1270   1.413       .  A
C1265      H1272   1.083       .  S
C1266      C1267   1.411       .  A
C1267      C1268   1.402       .  A
C1267      C1274   1.518       .  S
C1268      C1269   1.405       .  A
C1268      H1273   1.084       .  S
C1269      C1270   1.418       .  A
C1270      C1271   1.517       .  S
C1271      F1275   1.385       .  S
C1271      F1276   1.383       .  S
C1271      F1277   1.382       .  S
C1274      F1278   1.383       .  S
C1274      F1279   1.382       .  S
C1274      F1280   1.385       .  S
C1281      C1282   1.400       .  A
C1281      C1286   1.406       .  A
C1281      H1288   1.083       .  S
C1282      C1283   1.419       .  A
C1283      C1284   1.406       .  A
C1283      C1290   1.520       .  S
C1284      C1285   1.401       .  A
C1284      H1289   1.084       .  S
C1285      C1286   1.417       .  A
C1286      C1287   1.517       .  S
C1287      F1291   1.381       .  S
C1287      F1292   1.383       .  S
C1287      F1293   1.385       .  S
C1290      F1294   1.382       .  S
C1290      F1295   1.384       .  S
C1290      F1296   1.385       .  S
C1297      C1298   1.404       .  A
C1297      C1302   1.410       .  A
C1297      H1304   1.081       .  S
C1298      C1299   1.421       .  A
C1299      C1300   1.409       .  A
C1299      C1306   1.518       .  S
C1300      C1301   1.400       .  A
C1300      H1305   1.081       .  S
C1301      C1302   1.417       .  A
C1302      C1303   1.519       .  S
C1303      F1307   1.384       .  S
C1303      F1308   1.384       .  S
C1303      F1309   1.382       .  S
C1306      F1310   1.384       .  S
C1306      F1311   1.383       .  S
C1306      F1312   1.385       .  S
C1313      C1314   1.407       .  A
C1313      H1320   1.082       .  S
C1315      C1316   1.413       .  A
C1315      C1322   1.519       .  S
C1316      C1317   1.404       .  A
C1316      H1321   1.083       .  S
C1317      C1318   1.414       .  A
C1319      F1323   1.384       .  S
C1322      F1326   1.383   1_565  S
C1322      F1327   1.383   1_565  S
C1322      F1328   1.385       .  S
C1329      C1330   1.403       .  A
C1329      C1334   1.411       .  A
C1329      H1336   1.086       .  S
C1330      C1331   1.420       .  A
C1331      C1332   1.403       .  A
C1331      C1338   1.519       .  S
C1332      C1333   1.398       .  A
C1332      H1337   1.085       .  S
C1333      C1334   1.418       .  A
C1334      C1335   1.517       .  S
C1335      F1339   1.385       .  S
C1335      F1340   1.382       .  S
C1335      F1341   1.383       .  S
C1338      F1342   1.382       .  S
C1338      F1343   1.383       .  S
C1338      F1344   1.385       .  S
C1345      C1346   1.401       .  A
C1345      C1350   1.407       .  A
C1345      H1352   1.084       .  S
C1346      C2175   1.481       .  S
C1346      C1347   1.421       .  A
C1347      C1348   1.409       .  A
C1347      C1354   1.518       .  S
C1348      C1349   1.399       .  A
C1348      H1353   1.084       .  S
C1349      C1350   1.417       .  A
C1350      C1351   1.519       .  S
C1351      F1355   1.384       .  S
C1351      F1356   1.382       .  S
C1351      F1357   1.383       .  S
C1354      F1358   1.385       .  S
C1354      F1359   1.383       .  S
C1354      F1360   1.382       .  S
C1361      C1362   1.408       .  A
C1361      C1366   1.416       .  A
C1361      H1368   1.084       .  S
C1362      C1363   1.420       .  A
C1363      C1364   1.414       .  A
C1363      C1370   1.519       .  S
C1364      C1365   1.410       .  A
C1364      H1369   1.083       .  S
C1365      C1366   1.425       .  A
C1366      C1367   1.520       .  S
C1367      F1371   1.384       .  S
C1367      F1372   1.384       .  S
C1367      F1373   1.383       .  S
C1370      F1374   1.384       .  S
C1370      F1375   1.382       .  S
C1370      F1376   1.385       .  S
C1377      C1378   1.403       .  A
C1377      C1382   1.409       .  A
C1377      H1384   1.095       .  S
C1378      C1379   1.414       .  A
C1379      C1380   1.403       .  A
C1379      C1386   1.518       .  S
C1380      C1381   1.403       .  A
C1380      H1385   1.095       .  S
C1381      C1382   1.418       .  A
C1382      C1383   1.517       .  S
C1383      F1387   1.385       .  S
C1383      F1388   1.381       .  S
C1383      F1389   1.383       .  S
C1386      F2830   1.382   1_455  S
C1386      F2831   1.383       .  S
C1386      F1392   1.385       .  S
F1390      C2826   1.382       .  S
F1391      C2826   1.383       .  S
C1393      C1394   1.404       .  A
C1393      C1398   1.414       .  A
C1393      H1400   1.083       .  S
C1394      C1395   1.415       .  A
C1395      C1396   1.398       .  A
C1395      C1402   1.523       .  S
C1396      C1397   1.408       .  A
C1396      H1401   1.082       .  S
C1397      C1398   1.423       .  A
C1398      C1399   1.517       .  S
C1399      F1403   1.385       .  S
C1399      F1404   1.383       .  S
C1399      F1405   1.383       .  S
C1402      F1406   1.382       .  S
C1402      F1407   1.383       .  S
C1402      F1408   1.385       .  S
C1409      C1410   1.407       .  A
C1409      C1414   1.410       .  A
C1409      H1416   1.084       .  S
C1410      C1411   1.421       .  A
C1411      C1412   1.414       .  A
C1411      C1418   1.519       .  S
C1412      C1413   1.408       .  A
C1412      H1417   1.084       .  S
C1413      C1414   1.419       .  A
C1414      C1415   1.519       .  S
C1415      F1419   1.384       .  S
C1415      F1420   1.384       .  S
C1415      F1421   1.382       .  S
C1418      F1422   1.384       .  S
C1418      F1423   1.383       .  S
C1418      F1424   1.385       .  S
C1425      C1426   1.409       .  A
C1425      H1432   1.082       .  S
C1426      C2867   1.425       .  A
C1427      C2866   1.426       .  A
C1427      C1428   1.414   1_565  A
C1427      C1434   1.520       .  S
C1428      H1433   1.083       .  S
C1429      C2870   1.414       .  A
C1430      C2869   1.414       .  A
C1430      C1431   1.519       .  S
C1431      F1435   1.385       .  S
C1431      F1436   1.382       .  S
C1431      F1437   1.384       .  S
C1434      F1438   1.384       .  S
C1434      F1439   1.383       .  S
C1434      F1440   1.385   1_565  S
In1441     O1443   2.205       .  S
In1441     O1444   2.258       .  S
In1441     O1452   2.249       .  S
In1441     O1446   2.265       .  S
In1441     O1448   2.269   1_655  S
In1441     O1449   2.252       .  S
In1441     O1450   2.219       .  S
In1441     O1453   2.230       .  S
C1442      C2098   1.484       .  S
O1443      C1451   1.260       .  A
O1444      C1451   1.266       .  A
C1445      C2130   1.501       .  S
C1445      O1452   1.263       .  A
C1445      O1446   1.266       .  A
C1447      C2146   1.498       .  S
C1447      O1449   1.264       .  A
C1447      O1453   1.264       .  A
C1451      C2114   1.472       .  S
In1454     O1456   2.208       .  S
In1454     O1457   2.262       .  S
In1454     O1465   2.242       .  S
In1454     O1459   2.254       .  S
In1454     O1461   2.261       .  S
In1454     O1462   2.254       .  S
In1454     O1463   2.206       .  S
In1454     O1466   2.214       .  S
C1455      O1461   1.269       .  A
C1455      O1463   1.259       .  A
O1456      C1464   1.260       .  A
O1457      C1464   1.267       .  A
C1458      C2085   1.500       .  S
C1458      O1465   1.264       .  A
C1458      O1459   1.266       .  A
C1460      C2149   1.474       .  S
C1460      O1462   1.267       .  A
C1460      O1466   1.261       .  A
C1464      C2050   1.473       .  S
In1467     O1469   2.197       .  S
In1467     O1470   2.263       .  S
In1467     O1478   2.243       .  S
In1467     O1472   2.259       .  S
In1467     O1474   2.267       .  S
In1467     O1475   2.255       .  S
In1467     O1476   2.221       .  S
In1467     O1479   2.213       .  S
C1468      C2018   1.484       .  S
C1468      O1474   1.269       .  A
C1468      O1476   1.260       .  A
O1469      C1477   1.259       .  A
O1470      C1477   1.268       .  A
C1471      C2082   1.492       .  S
C1471      O1478   1.263       .  A
C1471      O1472   1.266       .  A
C1473      C2034   1.494       .  S
C1473      O1475   1.266       .  A
C1473      O1479   1.263       .  A
C1477      C2002   1.474       .  S
In1480     O1482   2.211       .  S
In1480     O1483   2.264       .  S
In1480     O1491   2.244       .  S
In1480     O1485   2.266       .  S
In1480     O1487   2.273       .  S
In1480     O1488   2.251       .  S
In1480     O1489   2.229       .  S
In1480     O1492   2.221       .  S
C1481      C1986   1.478       .  S
C1481      O1487   1.267       .  A
C1481      O1489   1.259       .  A
O1482      C1490   1.260       .  A
O1483      C1490   1.267       .  A
C1484      C2133   1.498       .  S
C1484      O1491   1.263       .  A
C1484      O1485   1.268       .  A
C1486      C2037   1.477       .  S
C1486      O1488   1.266       .  A
C1486      O1492   1.261       .  A
C1490      C1970   1.475       .  S
In1493     O1495   2.237       .  S
In1493     O1496   2.247       .  S
In1493     O1504   2.253       .  S
In1493     O1498   2.258       .  S
In1493     O1500   2.269       .  S
In1493     O1501   2.267       .  S
In1493     O1502   2.219       .  S
In1493     O1505   2.216       .  S
C1494      C2626   1.478       .  S
C1494      O1500   1.267       .  A
C1494      O1502   1.259       .  A
O1495      C1503   1.264       .  A
O1496      C1503   1.265       .  A
C1497      C1938   1.497       .  S
C1497      O1504   1.263       .  A
C1497      O1498   1.264       .  A
C1499      C1925   1.470       .  S
C1499      O1501   1.265       .  A
C1499      O1505   1.259       .  A
C1503      C1957   1.491       .  S
In1506     O1508   2.228       .  S
In1506     O1509   2.250       .  S
In1506     O1517   2.230       .  S
In1506     O1511   2.272       .  S
In1506     O1513   2.263   1_545  S
In1506     O1514   2.260       .  S
In1506     O1515   2.224   1_545  S
In1506     O1518   2.224       .  S
C1507      C1874   1.480       .  S
C1507      O2233   1.267       .  A
C1507      O2235   1.260       .  A
O1508      C1516   1.262       .  A
O1509      C1516   1.268       .  A
C1510      C1890   1.504       .  S
C1510      O1517   1.260       .  A
C1510      O1511   1.270       .  A
C1512      C1861   1.481       .  S
C1512      O1514   1.268       .  A
C1512      O1518   1.261       .  A
O1513      C2227   1.269       .  A
O1515      C2227   1.260       .  A
C1516      C1954   1.487       .  S
In1519     O1521   2.241       .  S
In1519     O1522   2.268       .  S
In1519     O1530   2.237       .  S
In1519     O1524   2.263       .  S
In1519     O1526   2.275       .  S
In1519     O1527   2.264       .  S
In1519     O1528   2.199       .  S
In1519     O1531   2.230       .  S
C1520      C1973   1.493       .  S
C1520      O1526   1.269       .  A
C1520      O1528   1.262       .  A
O1521      C1529   1.262       .  A
O1522      C1529   1.267       .  A
C1523      C1893   1.493       .  S
C1523      O1530   1.262       .  A
C1523      O1524   1.269       .  A
C1525      C2021   1.480       .  S
C1525      O1527   1.269       .  A
C1525      O1531   1.262       .  A
C1529      C1842   1.487       .  S
In1532     O1534   2.212       .  S
In1532     O1535   2.262       .  S
In1532     O1543   2.254       .  S
In1532     O1537   2.255       .  S
In1532     O1539   2.255       .  S
In1532     O1540   2.272       .  S
In1532     O1541   2.221       .  S
In1532     O1544   2.211       .  S
C1533      C2005   1.473       .  S
C1533      O1539   1.268       .  A
C1533      O1541   1.260       .  A
O1534      C1542   1.263       .  A
O1535      C1542   1.267       .  A
C1536      C1941   1.499       .  S
C1536      O1543   1.264       .  A
C1536      O1537   1.264       .  A
C1538      C1989   1.487       .  S
C1538      O1540   1.268       .  A
C1538      O1544   1.260       .  A
C1542      C1845   1.494       .  S
In1545     O1547   2.209       .  S
In1545     O1548   2.269       .  S
In1545     O1556   2.235       .  S
In1545     O1550   2.263       .  S
In1545     O1552   2.273       .  S
In1545     O1553   2.252       .  S
In1545     O1554   2.216       .  S
In1545     O1557   2.226       .  S
C1546      C1797   1.475       .  S
O1547      C1555   1.261       .  A
O1548      C1555   1.270       .  A
C1549      C1810   1.494       .  S
C1549      O1556   1.264       .  A
C1549      O1550   1.268       .  A
C1551      C1826   1.499       .  S
C1551      O1553   1.268       .  A
C1551      O1557   1.265       .  A
C1555      C1778   1.485   1_556  S
In1558     O1560   2.227       .  S
In1558     O1561   2.259       .  S
In1558     O1569   2.240       .  S
In1558     O1563   2.259       .  S
In1558     O1565   2.274       .  S
In1558     O1566   2.248       .  S
In1558     O1567   2.208       .  S
In1558     O1570   2.237       .  S
C1559      O1565   1.269       .  A
C1559      O1567   1.261       .  A
O1560      C1568   1.261       .  A
O1561      C1568   1.267       .  A
C1562      C1762   1.497       .  S
C1562      O1569   1.263       .  A
C1562      O1563   1.267       .  A
C1564      C1829   1.484       .  S
C1564      O1566   1.267       .  A
C1564      O1570   1.262       .  A
C1568      C1746   1.476   1_556  S
In1571     O1573   2.222       .  S
In1571     O1574   2.256       .  S
In1571     O1582   2.247       .  S
In1571     O1576   2.266       .  S
In1571     O1578   2.272       .  S
In1571     O1579   2.256       .  S
In1571     O1580   2.199       .  S
In1571     O1583   2.222       .  S
C1572      C1922   1.487       .  S
C1572      O1578   1.270       .  A
C1572      O1580   1.262       .  A
O1573      C1581   1.262       .  A
O1574      C1581   1.267       .  A
C1575      C1813   1.502       .  S
C1575      O1582   1.263       .  A
C1575      O1576   1.267       .  A
C1577      C1714   1.490       .  S
C1577      O1579   1.268       .  A
C1577      O1583   1.261       .  A
C1581      C1877   1.476       .  S
In1584     O1586   2.214       .  S
In1584     O1587   2.266       .  S
In1584     O1595   2.241       .  S
In1584     O1589   2.255       .  S
In1584     O1591   2.264       .  S
In1584     O1592   2.245       .  S
In1584     O1593   2.225       .  S
In1584     O1596   2.243       .  S
C1585      C1858   1.478       .  S
C1585      O1591   1.269       .  A
C1585      O1593   1.261       .  A
O1586      C1594   1.260       .  A
O1587      C1594   1.268       .  A
C1588      C1765   1.495       .  S
C1588      O1595   1.263       .  A
C1588      O1589   1.267       .  A
C1590      C1717   1.495       .  S
C1590      O1592   1.266       .  A
C1590      O1596   1.264       .  A
C1594      C1909   1.478       .  S
In1597     O1599   2.249       .  S
In1597     O1600   2.277       .  S
In1597     O1608   2.254       .  S
In1597     O1602   2.258       .  S
In1597     O1604   2.275       .  S
In1597     O1605   2.274       .  S
In1597     O1606   2.217       .  S
In1597     O1609   2.215       .  S
C1598      C1781   1.476       .  S
C1598      O2324   1.268       .  A
C1598      O2326   1.260       .  A
O1599      C1607   1.262       .  A
O1600      C1607   1.266       .  A
C1601      C1685   1.500       .  S
C1601      O1608   1.264       .  A
C1601      O1602   1.264       .  A
C1603      C1733   1.475       .  S
C1603      O1605   1.268       .  A
C1603      O1609   1.260       .  A
O1604      C2318   1.267   1_545  A
O1606      C2318   1.259   1_545  A
C1607      C1698   1.503       .  S
In1610     O1612   2.241       .  S
In1610     O1613   2.251       .  S
In1610     O1621   2.242       .  S
In1610     O1615   2.268       .  S
In1610     O1617   2.281       .  S
In1610     O1618   2.265       .  S
In1610     O1619   2.202       .  S
In1610     O1622   2.224       .  S
C1611      C2469   1.495       .  S
C1611      O1617   1.270       .  A
C1611      O1619   1.261       .  A
O1612      C1620   1.262       .  A
O1613      C1620   1.268       .  A
C1614      C1666   1.490       .  S
C1614      O1621   1.262       .  A
C1614      O1615   1.268       .  A
C1616      C1794   1.480       .  S
C1616      O1618   1.268       .  A
C1616      O1622   1.262       .  A
C1620      C1701   1.495       .  S
In1623     O1625   2.218       .  S
In1623     O1626   2.255       .  S
In1623     O1634   2.237       .  S
In1623     O1628   2.256       .  S
In1623     O1630   2.258       .  S
In1623     O1631   2.263       .  S
In1623     O1632   2.190       .  S
In1623     O1635   2.212       .  S
C1624      C2117   1.490       .  S
C1624      O1630   1.270       .  A
C1624      O1632   1.263       .  A
O1625      C1633   1.261       .  A
O1626      C1633   1.269       .  A
C1627      C1682   1.493       .  S
C1627      O1634   1.264       .  A
C1627      O1628   1.266       .  A
C1629      C2069   1.477       .  S
C1629      O1631   1.269       .  A
C1629      O1635   1.261       .  A
C1633      C1650   1.489       .  S
In1636     O1638   2.233       .  S
In1636     O1639   2.262       .  S
In1636     O1647   2.252       .  S
In1636     O1641   2.276       .  S
In1636     O1643   2.264       .  S
In1636     O1644   2.274       .  S
In1636     O1645   2.220       .  S
In1636     O1648   2.234       .  S
C1637      C2053   1.475       .  S
C1637      O1643   1.267       .  A
C1637      O1645   1.261       .  A
O1638      C1646   1.263       .  A
O1639      C1646   1.265       .  A
C1640      C1669   1.507       .  S
C1640      O1647   1.260       .  A
C1640      O1641   1.266       .  A
C1642      C2101   1.479       .  S
C1642      O1644   1.265       .  A
C1642      O1648   1.259       .  A
C1646      C1653   1.493       .  S
C1649      C1650   1.405       .  A
C1649      C1654   1.412       .  A
C1649      H1656   1.083       .  S
C1650      C1651   1.420       .  A
C1651      C1652   1.407       .  A
C1651      C1658   1.521       .  S
C1652      C1653   1.405       .  A
C1652      H1657   1.083       .  S
C1653      C1654   1.422       .  A
C1654      C1655   1.519       .  S
C1655      F1659   1.385       .  S
C1655      F1660   1.383       .  S
C1655      F1661   1.383       .  S
C1658      F1662   1.383       .  S
C1658      F1663   1.383       .  S
C1658      F1664   1.385       .  S
C1665      C1666   1.400       .  A
C1665      C1670   1.414       .  A
C1665      H1672   1.082       .  S
C1666      C1667   1.417       .  A
C1667      C1668   1.413       .  A
C1667      C1674   1.520       .  S
C1668      C1669   1.410       .  A
C1668      H1673   1.081       .  S
C1669      C1670   1.429       .  A
C1670      C1671   1.520       .  S
C1671      F1675   1.385       .  S
C1671      F1676   1.383       .  S
C1671      F1677   1.382       .  S
C1674      F1678   1.382       .  S
C1674      F1679   1.384       .  S
C1674      F1680   1.384       .  S
C1681      C1682   1.405       .  A
C1681      C1686   1.411       .  A
C1681      H1688   1.084       .  S
C1682      C1683   1.419       .  A
C1683      C1684   1.413       .  A
C1683      C1690   1.519       .  S
C1684      C1685   1.410       .  A
C1684      H1689   1.083       .  S
C1685      C1686   1.422       .  A
C1686      C1687   1.519       .  S
C1687      F1691   1.385       .  S
C1687      F1692   1.383       .  S
C1687      F1693   1.383       .  S
C1690      F1694   1.383       .  S
C1690      F1695   1.383       .  S
C1690      F1696   1.384       .  S
C1697      C1698   1.408       .  A
C1697      C1702   1.413   1_545  A
C1697      H1704   1.082       .  S
C1698      C2419   1.423       .  A
C1699      C2418   1.420       .  A
C1699      C1700   1.410       .  A
C1699      C1706   1.519       .  S
C1700      C1701   1.405       .  A
C1700      H1705   1.082       .  S
C1701      C2422   1.423       .  A
C1702      C2421   1.421       .  A
C1702      C1703   1.520       .  S
C1703      F1707   1.385       .  S
C1703      F1708   1.383       .  S
C1703      F1709   1.383       .  S
C1706      F1710   1.382       .  S
C1706      F1711   1.382       .  S
C1706      F1712   1.385   1_554  S
C1713      C1714   1.405       .  A
C1713      C1718   1.411       .  A
C1713      H1720   1.082       .  S
C1714      C1715   1.420       .  A
C1715      C1716   1.411       .  A
C1715      C1722   1.522       .  S
C1716      C1717   1.407       .  A
C1716      H1721   1.082       .  S
C1717      C1718   1.422       .  A
C1718      C1719   1.519       .  S
C1719      F1723   1.384       .  S
C1719      F1724   1.383       .  S
C1719      F1725   1.383       .  S
C1722      F1726   1.383       .  S
C1722      F1727   1.384       .  S
C1722      F1728   1.384       .  S
C1729      C1730   1.408       .  A
C1729      C1734   1.404   1_556  A
C1729      H1736   1.081   1_556  S
C1730      C1731   1.421       .  A
C1731      C1732   1.413       .  A
C1731      C1738   1.517       .  S
C1732      C1733   1.403   1_556  A
C1732      H1737   1.081       .  S
C1733      C1734   1.410       .  A
C1734      C1735   1.518       .  S
C1735      F1739   1.385       .  S
C1735      F1740   1.382       .  S
C1735      F1741   1.383       .  S
C1738      F1742   1.383       .  S
C1738      F1744   1.385       .  S
C1745      C1746   1.403       .  A
C1745      C1750   1.412       .  A
C1745      H1752   1.084       .  S
C1746      C1747   1.411       .  A
C1747      C1748   1.406       .  A
C1747      C1754   1.518   1_554  S
C1748      C1749   1.407       .  A
C1748      H1753   1.084       .  S
C1749      C2331   1.487       .  S
C1749      C1750   1.420       .  A
C1750      C1751   1.518       .  S
C1751      F1755   1.385       .  S
C1751      F1756   1.383       .  S
C1751      F1757   1.382   1_545  S
C1754      F1758   1.383   1_556  S
C1754      F1759   1.383       .  S
C1754      F1760   1.384       .  S
C1761      C1762   1.408       .  A
C1761      C1766   1.412       .  A
C1761      H1768   1.082       .  S
C1762      C1763   1.420       .  A
C1763      C1764   1.412       .  A
C1763      C1770   1.519       .  S
C1764      C1765   1.408       .  A
C1764      H1769   1.081       .  S
C1765      C1766   1.419       .  A
C1766      C1767   1.519       .  S
C1767      F1771   1.384       .  S
C1767      F1772   1.384       .  S
C1767      F1773   1.383       .  S
C1770      F1774   1.384       .  S
C1770      F1775   1.383       .  S
C1770      F1776   1.384       .  S
C1777      C1778   1.406       .  A
C1777      C1782   1.413       .  A
C1777      H1784   1.083       .  S
C1778      C1779   1.422       .  A
C1779      C1780   1.406       .  A
C1779      C1786   1.520       .  S
C1780      C1781   1.398       .  A
C1780      H1785   1.084       .  S
C1781      C1782   1.415       .  A
C1782      C1783   1.516       .  S
C1783      F1787   1.381       .  S
C1783      F1788   1.383       .  S
C1783      F1789   1.384       .  S
C1786      F1790   1.383   1_554  S
C1786      F1791   1.383       .  S
C1786      F1792   1.384       .  S
C1793      C1794   1.402       .  A
C1793      C1798   1.410   1_554  A
C1793      H1800   1.085       .  S
C1794      C1795   1.420   1_554  A
C1795      C1796   1.406       .  A
C1795      C1802   1.517       .  S
C1796      C1797   1.399       .  A
C1796      H1801   1.086       .  S
C1797      C1798   1.417       .  A
C1798      C1799   1.518       .  S
C1799      F1803   1.383       .  S
C1802      F1806   1.383       .  S
C1802      F1807   1.379   1_556  S
C1802      F1808   1.385       .  S
C1809      C1810   1.405       .  A
C1809      C1814   1.412       .  A
C1809      H1816   1.084       .  S
C1810      C1811   1.417       .  A
C1811      C1812   1.414       .  A
C1811      C1818   1.519       .  S
C1812      C1813   1.411       .  A
C1812      H1817   1.083       .  S
C1813      C1814   1.422       .  A
C1814      C1815   1.519       .  S
C1815      F1819   1.385       .  S
C1815      F1820   1.383       .  S
C1815      F1821   1.383       .  S
C1818      F1822   1.384       .  S
C1818      F1823   1.383       .  S
C1818      F1824   1.384       .  S
C1825      C1826   1.410   1_455  A
C1825      C1830   1.408       .  A
C1825      H1832   1.082       .  S
C1827      C1828   1.411       .  A
C1827      C1834   1.519   1_556  S
C1828      C1829   1.402       .  A
C1828      H1833   1.083       .  S
C1830      C1831   1.520       .  S
C1831      F1835   1.385       .  S
C1831      F1836   1.382       .  S
C1831      F1837   1.383       .  S
C1834      F1838   1.383       .  S
C1834      F1839   1.383       .  S
C1834      F1840   1.385       .  S
C1841      C1846   1.414       .  A
C1841      H1848   1.082       .  S
C1842      C1843   1.414       .  A
C1843      C1844   1.411   1_655  A
C1843      C1850   1.519       .  S
C1844      H1849   1.081       .  S
C1845      C1846   1.424       .  A
C1846      C1847   1.519       .  S
C1847      F1851   1.383       .  S
C1847      F1852   1.383       .  S
C1847      F1853   1.385       .  S
C1850      F1854   1.384       .  S
C1850      F1855   1.381       .  S
C1850      F1856   1.385   1_655  S
C1857      C1858   1.401       .  A
C1857      C1862   1.408       .  A
C1857      H1864   1.083       .  S
C1858      C1859   1.415       .  A
C1859      C1860   1.409       .  A
C1859      C1866   1.515       .  S
C1860      C1861   1.402       .  A
C1860      H1865   1.084       .  S
C1861      C1862   1.419       .  A
C1862      C1863   1.518       .  S
C1863      F1867   1.385       .  S
C1863      F1868   1.384   1_545  S
C1863      F1869   1.381       .  S
C1866      F1870   1.383       .  S
C1866      F1871   1.382       .  S
C1866      F1872   1.385       .  S
C1873      C1874   1.401       .  A
C1873      C1878   1.406       .  A
C1873      H1880   1.081       .  S
C1874      C1875   1.419       .  A
C1875      C1876   1.409       .  A
C1875      C1882   1.518       .  S
C1876      C1877   1.401       .  A
C1876      H1881   1.083       .  S
C1877      C1878   1.417       .  A
C1878      C1879   1.518       .  S
C1879      F1883   1.385       .  S
C1879      F1884   1.381       .  S
C1879      F1885   1.383       .  S
C1882      F1886   1.381       .  S
C1882      F1887   1.383       .  S
C1882      F1888   1.385       .  S
C1889      C1890   1.408       .  A
C1889      C1894   1.412       .  A
C1889      H1896   1.081       .  S
C1890      C1891   1.429       .  A
C1891      C1892   1.412       .  A
C1891      C1898   1.521       .  S
C1892      C1893   1.401       .  A
C1892      H1897   1.081       .  S
C1893      C1894   1.420       .  A
C1894      C1895   1.520       .  S
C1895      F1899   1.385       .  S
C1895      F1900   1.382       .  S
C1895      F1901   1.384       .  S
C1898      F1902   1.383       .  S
C1898      F1903   1.384       .  S
C1898      F1904   1.385       .  S
C1905      C1906   1.405       .  A
C1905      C1910   1.409       .  A
C1905      H2632   1.084       .  S
C1906      C2214   1.478   1_545  S
C1906      C1907   1.415       .  A
C1907      C1908   1.407       .  A
C1907      C1914   1.518   1_545  S
C1908      C1909   1.404       .  A
C1908      H1913   1.084       .  S
C1909      C1910   1.414       .  A
C1910      C1911   1.517       .  S
C1911      F1915   1.385       .  S
C1911      F1916   1.383       .  S
C1911      F1917   1.383       .  S
H1912      C2625   1.084       .  S
C1914      F1918   1.385   1_565  S
C1914      F1919   1.382       .  S
C1914      F1920   1.383       .  S
C1921      C1922   1.408       .  A
C1921      C1926   1.402       .  A
C1921      H1928   1.084       .  S
C1922      C1923   1.420       .  A
C1923      C1924   1.412       .  A
C1923      C1930   1.517       .  S
C1924      C1925   1.402       .  A
C1924      H1929   1.084       .  S
C1925      C1926   1.409       .  A
C1926      C1927   1.519       .  S
C1927      F1931   1.385       .  S
C1927      F1932   1.383       .  S
C1927      F1933   1.383       .  S
C1930      F1934   1.382       .  S
C1930      F1935   1.383       .  S
C1930      F1936   1.385       .  S
C1937      C1938   1.407       .  A
C1937      C1942   1.413       .  A
C1937      H1944   1.081       .  S
C1938      C1939   1.420       .  A
C1939      C1940   1.413       .  A
C1939      C1946   1.519       .  S
C1940      C1941   1.408       .  A
C1940      H1945   1.081       .  S
C1941      C1942   1.422       .  A
C1942      C1943   1.520       .  S
C1943      F1947   1.385       .  S
C1943      F1948   1.383       .  S
C1943      F1949   1.384       .  S
C1946      F1950   1.383       .  S
C1946      F1951   1.384       .  S
C1946      F1952   1.384       .  S
C1953      C1958   1.412       .  A
C1953      H1960   1.082       .  S
C1954      C2675   1.419       .  A
C1955      C2674   1.413       .  A
C1955      C1956   1.404   1_655  A
C1955      C1962   1.520       .  S
C1956      H1961   1.082       .  S
C1957      C2678   1.421       .  A
C1958      C2677   1.425       .  A
C1958      C1959   1.519       .  S
C1959      F1963   1.385       .  S
C1959      F1964   1.384       .  S
C1959      F1965   1.382       .  S
C1962      F1966   1.385       .  S
C1962      F1967   1.382       .  S
C1962      F1968   1.385   1_655  S
C1969      C1970   1.402       .  A
C1969      C1974   1.414       .  A
C1969      H1976   1.084       .  S
C1970      C1971   1.412       .  A
C1971      C1972   1.400       .  A
C1971      C1978   1.519       .  S
C1972      C1973   1.407       .  A
C1972      H1977   1.083       .  S
C1973      C1974   1.424       .  A
C1974      C1975   1.517       .  S
C1975      F1979   1.385       .  S
C1975      F1980   1.383       .  S
C1975      F1981   1.383       .  S
C1978      F1982   1.381       .  S
C1978      F1983   1.383       .  S
C1978      F1984   1.385       .  S
C1985      C1986   1.405       .  A
C1985      C1990   1.415       .  A
C1985      H1992   1.083       .  S
C1986      C1987   1.412       .  A
C1987      C1988   1.404       .  A
C1987      C1994   1.518       .  S
C1988      C1989   1.406       .  A
C1988      H1993   1.084       .  S
C1989      C1990   1.418       .  A
C1990      C1991   1.517       .  S
C1991      F1995   1.384       .  S
C1991      F1996   1.383       .  S
C1991      F1997   1.384       .  S
C1994      F1998   1.382       .  S
C1994      F1999   1.383       .  S
C1994      F2000   1.385       .  S
C2001      C2002   1.402       .  A
C2001      C2006   1.409       .  A
C2001      H2008   1.083       .  S
C2002      C2003   1.419       .  A
C2003      C2004   1.404       .  A
C2003      C2010   1.520       .  S
C2004      C2005   1.399       .  A
C2004      H2009   1.084       .  S
C2005      C2006   1.417       .  A
C2006      C2007   1.517       .  S
C2007      F2011   1.382       .  S
C2007      F2012   1.383       .  S
C2007      F2013   1.385       .  S
C2010      F2014   1.382       .  S
C2010      F2015   1.384       .  S
C2010      F2016   1.384       .  S
C2017      C2018   1.404       .  A
C2017      C2022   1.410       .  A
C2017      H2024   1.080       .  S
C2018      C2019   1.420       .  A
C2019      C2020   1.409       .  A
C2019      C2026   1.519       .  S
C2020      C2021   1.400       .  A
C2020      H2025   1.083       .  S
C2021      C2022   1.417       .  A
C2022      C2023   1.519       .  S
C2023      F2027   1.385       .  S
C2023      F2028   1.383       .  S
C2023      F2029   1.382       .  S
C2026      F2030   1.384       .  S
C2026      F2031   1.382       .  S
C2026      F2032   1.385       .  S
C2033      C2034   1.408       .  A
C2033      C2758   1.403   1_545  A
C2033      H2040   1.082       .  S
C2034      C2755   1.424   1_545  A
C2035      C2754   1.425       .  A
C2035      C2036   1.412       .  A
C2035      C2042   1.519       .  S
C2036      C2037   1.402       .  A
C2036      H2041   1.083       .  S
C2037      C2038   1.412       .  A
C2038      C2753   1.403       .  A
C2038      C2759   1.519       .  S
C2039      C2758   1.517       .  S
C2039      F2043   1.385       .  S
C2039      F2764   1.382       .  S
C2039      F2765   1.384       .  S
C2042      F2046   1.383       .  S
C2042      F2047   1.383       .  S
C2042      F2048   1.385       .  S
F2044      C2759   1.381       .  S
F2045      C2759   1.384       .  S
C2049      C2050   1.399       .  A
C2049      C2054   1.405       .  A
C2049      H2056   1.086       .  S
C2050      C2051   1.417       .  A
C2051      C2052   1.407       .  A
C2051      C2058   1.519       .  S
C2052      C2053   1.402       .  A
C2052      H2057   1.083       .  S
C2053      C2054   1.418       .  A
C2054      C2055   1.517       .  S
C2055      F2059   1.384       .  S
C2055      F2060   1.382       .  S
C2055      F2061   1.383       .  S
C2058      F2062   1.381       .  S
C2058      F2063   1.384       .  S
C2058      F2064   1.384       .  S
C2065      C2066   1.399       .  A
C2065      C2070   1.406       .  A
C2065      H2072   1.083       .  S
C2066      C2067   1.416       .  A
C2067      C2068   1.408       .  A
C2067      C2074   1.516       .  S
C2068      C2069   1.401       .  A
C2068      H2073   1.085       .  S
C2069      C2070   1.420       .  A
C2070      C2071   1.520       .  S
C2071      F2075   1.385       .  S
C2071      F2076   1.383       .  S
C2071      F2077   1.382       .  S
C2074      F2078   1.385       .  S
C2074      F2079   1.384       .  S
C2074      F2080   1.382       .  S
C2081      C2082   1.405       .  A
C2081      C2086   1.412       .  A
C2081      H2088   1.083       .  S
C2082      C2083   1.417       .  A
C2083      C2084   1.411       .  A
C2083      C2090   1.519       .  S
C2084      C2085   1.409       .  A
C2084      H2089   1.083       .  S
C2085      C2086   1.423       .  A
C2086      C2087   1.520       .  S
C2087      F2091   1.385       .  S
C2087      F2092   1.384       .  S
C2087      F2093   1.383       .  S
C2090      F2094   1.384       .  S
C2090      F2095   1.383       .  S
C2090      F2096   1.385       .  S
C2097      C2098   1.404       .  A
C2097      C2102   1.406       .  A
C2097      H2104   1.096       .  S
C2098      C2099   1.419       .  A
C2099      C2100   1.410       .  A
C2099      C2106   1.517       .  S
C2100      C2101   1.403       .  A
C2100      H2105   1.095       .  S
C2101      C2102   1.414       .  A
C2102      C2103   1.516       .  S
C2103      F2107   1.384       .  S
C2103      F2108   1.383       .  S
C2103      F2109   1.383       .  S
C2106      F2112   1.384       .  S
C2113      C2114   1.402       .  A
C2113      C2118   1.413       .  A
C2113      H2120   1.083       .  S
C2114      C2115   1.412       .  A
C2115      C2116   1.398       .  A
C2115      C2122   1.521       .  S
C2116      C2117   1.407       .  A
C2116      H2121   1.082       .  S
C2117      C2118   1.422       .  A
C2118      C2119   1.517       .  S
C2119      F2123   1.385       .  S
C2119      F2124   1.384       .  S
C2119      F2125   1.383       .  S
C2122      F2126   1.382       .  S
C2122      F2127   1.382       .  S
C2122      F2128   1.385       .  S
C2129      C2130   1.410       .  A
C2129      C2134   1.413       .  A
C2129      H2136   1.081       .  S
C2130      C2131   1.420       .  A
C2131      C2132   1.412       .  A
C2131      C2138   1.519       .  S
C2132      C2133   1.407       .  A
C2132      H2137   1.077       .  S
C2133      C2134   1.418       .  A
C2134      C2135   1.518       .  S
C2135      F2139   1.384       .  S
C2135      F2140   1.382       .  S
C2135      F2141   1.383       .  S
C2138      F2142   1.383       .  S
C2138      F2143   1.383       .  S
C2138      F2144   1.385       .  S
C2145      C2146   1.408   1_455  A
C2145      C2870   1.405       .  A
C2145      H2152   1.083       .  S
C2147      C2148   1.414       .  A
C2147      C2154   1.520       .  S
C2148      C2869   1.402       .  A
C2148      H2153   1.083       .  S
C2149      C2868   1.402       .  A
C2150      C2865   1.408   1_545  A
C2150      C2151   1.520       .  S
C2151      F2155   1.384   1_545  S
C2151      F2156   1.382       .  S
C2151      F2157   1.384       .  S
C2154      F2158   1.384       .  S
C2154      F2159   1.383       .  S
C2154      F2160   1.385       .  S
In2161     O2163   2.219       .  S
In2161     O2164   2.267       .  S
In2161     O2172   2.238       .  S
In2161     O2166   2.264       .  S
In2161     O2168   2.267   1_655  S
In2161     O2169   2.248       .  S
In2161     O2170   2.221   1_655  S
In2161     O2173   2.242       .  S
C2162      C2818   1.473       .  S
O2163      C2171   1.259       .  A
O2164      C2171   1.266       .  A
C2165      C2850   1.501       .  S
C2165      O2172   1.263       .  A
C2165      O2166   1.266       .  A
C2167      C2866   1.500       .  S
C2167      O2169   1.264       .  A
C2167      O2173   1.265       .  A
C2171      C2834   1.475       .  S
In2174     O2176   2.222       .  S
In2174     O2177   2.274       .  S
In2174     O2185   2.233       .  S
In2174     O2179   2.266       .  S
In2174     O2181   2.263       .  S
In2174     O2182   2.262       .  S
In2174     O2183   2.214       .  S
In2174     O2186   2.229       .  S
C2175      O2181   1.271       .  A
C2175      O2183   1.261       .  A
O2176      C2184   1.261       .  A
O2177      C2184   1.270       .  A
C2178      C2805   1.504       .  S
C2178      O2185   1.265       .  A
C2178      O2179   1.269       .  A
C2180      C2869   1.485       .  S
C2180      O2182   1.270       .  A
C2180      O2186   1.263       .  A
C2184      C2770   1.487       .  S
In2187     O2189   2.214       .  S
In2187     O2190   2.255       .  S
In2187     O2198   2.237       .  S
In2187     O2192   2.265       .  S
In2187     O2194   2.259       .  S
In2187     O2195   2.253       .  S
In2187     O2196   2.214       .  S
In2187     O2199   2.212       .  S
C2188      C2738   1.482       .  S
C2188      O2194   1.270       .  A
C2188      O2196   1.260       .  A
O2189      C2197   1.261       .  A
O2190      C2197   1.268       .  A
C2191      C2802   1.490       .  S
C2191      O2198   1.262       .  A
C2191      O2192   1.267       .  A
C2193      C2754   1.494       .  S
C2193      O2195   1.266       .  A
C2193      O2199   1.263       .  A
C2197      C2722   1.476       .  S
In2200     O2202   2.218       .  S
In2200     O2203   2.261       .  S
In2200     O2211   2.239       .  S
In2200     O2205   2.265       .  S
In2200     O2207   2.272       .  S
In2200     O2208   2.244       .  S
In2200     O2209   2.216       .  S
In2200     O2212   2.226       .  S
C2201      C2706   1.481       .  S
C2201      O2207   1.269       .  A
C2201      O2209   1.260       .  A
O2202      C2210   1.261       .  A
O2203      C2210   1.267       .  A
C2204      C2853   1.493       .  S
C2204      O2211   1.263       .  A
C2204      O2205   1.269       .  A
C2206      C2757   1.480       .  S
C2206      O2208   1.268       .  A
C2206      O2212   1.262       .  A
C2210      C2690   1.475       .  S
In2213     O2215   2.217       .  S
In2213     O2216   2.260       .  S
In2213     O2224   2.265       .  S
In2213     O2218   2.266       .  S
In2213     O2220   2.264       .  S
In2213     O2221   2.257       .  S
In2213     O2222   2.225       .  S
In2213     O2225   2.201       .  S
C2214      O2220   1.267       .  A
C2214      O2222   1.260       .  A
O2215      C2223   1.263       .  A
O2216      C2223   1.265       .  A
C2217      C2658   1.505       .  S
C2217      O2224   1.263       .  A
C2217      O2218   1.265       .  A
C2219      C2645   1.466       .  S
C2219      O2221   1.267       .  A
C2219      O2225   1.259       .  A
C2223      C2677   1.495       .  S
In2226     O2228   2.212       .  S
In2226     O2229   2.259       .  S
In2226     O2237   2.252       .  S
In2226     O2231   2.258       .  S
In2226     O2233   2.263       .  S
In2226     O2234   2.273       .  S
In2226     O2235   2.231       .  S
In2226     O2238   2.217       .  S
C2227      C2594   1.481       .  S
O2228      C2236   1.261       .  A
O2229      C2236   1.268       .  A
C2230      C2610   1.504       .  S
C2230      O2237   1.261       .  A
C2230      O2231   1.267       .  A
C2232      C2581   1.479       .  S
C2232      O2234   1.267       .  A
C2232      O2238   1.258       .  A
C2236      C2674   1.479       .  S
In2239     O2241   2.226       .  S
In2239     O2242   2.260       .  S
In2239     O2250   2.239       .  S
In2239     O2244   2.269       .  S
In2239     O2246   2.260       .  S
In2239     O2247   2.264       .  S
In2239     O2248   2.220       .  S
In2239     O2251   2.222       .  S
C2240      C2693   1.493       .  S
C2240      O2246   1.269       .  A
C2240      O2248   1.263       .  A
O2241      C2249   1.260       .  A
O2242      C2249   1.268       .  A
C2243      C2613   1.496       .  S
C2243      O2250   1.261       .  A
C2243      O2244   1.268       .  A
C2245      C2741   1.476       .  S
C2245      O2247   1.268       .  A
C2245      O2251   1.261       .  A
C2249      C2562   1.489       .  S
In2252     O2254   2.229       .  S
In2252     O2255   2.267       .  S
In2252     O2263   2.254       .  S
In2252     O2257   2.262       .  S
In2252     O2259   2.260       .  S
In2252     O2260   2.279       .  S
In2252     O2261   2.215       .  S
In2252     O2264   2.224       .  S
C2253      C2725   1.473       .  S
C2253      O2259   1.268       .  A
C2253      O2261   1.260       .  A
O2254      C2262   1.263       .  A
O2255      C2262   1.267       .  A
C2256      C2661   1.502       .  S
C2256      O2263   1.264       .  A
C2256      O2257   1.264       .  A
C2258      C2709   1.483       .  S
C2258      O2260   1.268       .  A
C2258      O2264   1.259       .  A
C2262      C2565   1.499       .  S
In2265     O2267   2.219       .  S
In2265     O2268   2.253       .  S
In2265     O2276   2.225       .  S
In2265     O2270   2.261       .  S
In2265     O2272   2.264   1_655  S
In2265     O2273   2.243       .  S
In2265     O2274   2.204       .  S
In2265     O2277   2.227       .  S
C2266      C2517   1.487       .  S
O2267      C2275   1.261       .  A
O2268      C2275   1.267       .  A
C2269      C2530   1.493       .  S
C2269      O2276   1.262       .  A
C2269      O2270   1.268       .  A
C2271      C2546   1.496       .  S
C2271      O2273   1.266       .  A
C2271      O2277   1.265       .  A
C2275      C2498   1.472   1_556  S
In2278     O2280   2.224       .  S
In2278     O2281   2.256       .  S
In2278     O2289   2.246       .  S
In2278     O2283   2.260       .  S
In2278     O2285   2.264       .  S
In2278     O2286   2.255       .  S
In2278     O2287   2.216       .  S
In2278     O2290   2.229       .  S
C2279      O2285   1.269       .  A
C2279      O2287   1.262       .  A
O2280      C2288   1.262       .  A
O2281      C2288   1.268       .  A
C2282      C2482   1.497       .  S
C2282      O2289   1.264       .  A
C2282      O2283   1.268       .  A
C2284      C2549   1.482       .  S
C2284      O2286   1.268       .  A
C2284      O2290   1.262       .  A
C2288      C2466   1.475   1_556  S
In2291     O2293   2.214       .  S
In2291     O2294   2.256       .  S
In2291     O2302   2.227       .  S
In2291     O2296   2.248       .  S
In2291     O2298   2.256       .  S
In2291     O2299   2.245       .  S
In2291     O2300   2.200       .  S
In2291     O2303   2.225       .  S
C2292      C2642   1.487       .  S
C2292      O2298   1.268       .  A
C2292      O2300   1.262       .  A
O2293      C2301   1.260       .  A
O2294      C2301   1.267       .  A
C2295      C2533   1.487       .  S
C2295      O2302   1.262       .  A
C2295      O2296   1.266       .  A
C2297      C2434   1.487       .  S
C2297      O2299   1.267       .  A
C2297      O2303   1.261       .  A
C2301      C2597   1.475       .  S
In2304     O2306   2.213       .  S
In2304     O2307   2.272       .  S
In2304     O2315   2.250       .  S
In2304     O2309   2.250       .  S
In2304     O2311   2.258       .  S
In2304     O2312   2.253       .  S
In2304     O2313   2.222       .  S
In2304     O2316   2.221       .  S
C2305      C2578   1.473       .  S
C2305      O2311   1.267       .  A
C2305      O2313   1.261       .  A
O2306      C2314   1.259       .  A
O2307      C2314   1.267       .  A
C2308      C2485   1.497       .  S
C2308      O2315   1.264       .  A
C2308      O2309   1.264       .  A
C2310      C2437   1.490       .  S
C2310      O2312   1.266       .  A
C2310      O2316   1.262       .  A
C2314      C2629   1.476       .  S
In2317     O2319   2.244       .  S
In2317     O2320   2.260       .  S
In2317     O2328   2.250       .  S
In2317     O2322   2.262       .  S
In2317     O2324   2.266       .  S
In2317     O2325   2.275       .  S
In2317     O2326   2.226       .  S
In2317     O2329   2.222       .  S
C2318      C2501   1.480       .  S
O2319      C2327   1.263       .  A
O2320      C2327   1.267       .  A
C2321      C2405   1.497       .  S
C2321      O2328   1.263       .  A
C2321      O2322   1.266       .  A
C2323      C2453   1.478       .  S
C2323      O2325   1.268       .  A
C2323      O2329   1.260       .  A
C2327      C2418   1.495       .  S
In2330     O2332   2.251       .  S
In2330     O2333   2.265       .  S
In2330     O2341   2.255       .  S
In2330     O2335   2.267       .  S
In2330     O2337   2.276       .  S
In2330     O2338   2.278       .  S
In2330     O2339   2.216       .  S
In2330     O2342   2.229       .  S
C2331      O2337   1.268   1_545  A
C2331      O2339   1.261   1_545  A
O2332      C2340   1.262       .  A
O2333      C2340   1.267       .  A
C2334      C2386   1.503       .  S
C2334      O2341   1.261       .  A
C2334      O2335   1.267       .  A
C2336      C2514   1.480   1_554  S
C2336      O2338   1.267       .  A
C2336      O2342   1.259       .  A
C2340      C2421   1.498       .  S
In2343     O2345   2.226       .  S
In2343     O2346   2.249       .  S
In2343     O2354   2.235       .  S
In2343     O2348   2.250       .  S
In2343     O2350   2.270       .  S
In2343     O2351   2.265       .  S
In2343     O2352   2.202       .  S
In2343     O2355   2.210       .  S
C2344      C2837   1.494       .  S
C2344      O2350   1.271       .  A
C2344      O2352   1.263       .  A
O2345      C2353   1.263       .  A
O2346      C2353   1.270       .  A
C2347      C2402   1.496       .  S
C2347      O2354   1.265       .  A
C2347      O2348   1.268       .  A
C2349      C2789   1.477       .  S
C2349      O2351   1.270       .  A
C2349      O2355   1.262       .  A
C2353      C2370   1.485       .  S
In2356     O2358   2.234       .  S
In2356     O2359   2.259       .  S
In2356     O2367   2.250       .  S
In2356     O2361   2.285       .  S
In2356     O2363   2.272       .  S
In2356     O2364   2.282       .  S
In2356     O2365   2.241       .  S
In2356     O2368   2.208       .  S
C2357      C2773   1.488       .  S
C2357      O2363   1.269       .  A
C2357      O2365   1.261       .  A
O2358      C2366   1.263       .  A
O2359      C2366   1.266       .  A
C2360      C2389   1.504       .  S
C2360      O2367   1.260       .  A
C2360      O2361   1.268       .  A
C2362      C2821   1.483       .  S
C2362      O2364   1.268       .  A
C2362      O2368   1.261       .  A
C2366      C2373   1.497       .  S
C2369      C2370   1.402       .  A
C2369      C2374   1.410       .  A
C2369      H2376   1.083       .  S
C2370      C2371   1.417       .  A
C2371      C2372   1.409       .  A
C2371      C2378   1.520       .  S
C2372      C2373   1.409       .  A
C2372      H2377   1.082       .  S
C2373      C2374   1.424       .  A
C2374      C2375   1.518       .  S
C2375      F2379   1.385       .  S
C2375      F2380   1.382       .  S
C2375      F2381   1.384       .  S
C2378      F2382   1.383       .  S
C2378      F2383   1.383       .  S
C2378      F2384   1.385       .  S
C2385      C2386   1.404       .  A
C2385      C2390   1.411       .  A
C2385      H2392   1.082       .  S
C2386      C2387   1.426       .  A
C2387      C2388   1.417       .  A
C2387      C2394   1.520       .  S
C2388      C2389   1.406       .  A
C2388      H2393   1.082       .  S
C2389      C2390   1.424       .  A
C2390      C2391   1.518       .  S
C2391      F2395   1.385       .  S
C2391      F2396   1.382       .  S
C2391      F2397   1.383       .  S
C2394      F2398   1.382       .  S
C2394      F2399   1.384       .  S
C2394      F2400   1.385       .  S
C2401      C2402   1.408       .  A
C2401      C2406   1.411       .  A
C2401      H2408   1.082       .  S
C2402      C2403   1.420       .  A
C2403      C2404   1.413       .  A
C2403      C2410   1.520       .  S
C2404      C2405   1.408       .  A
C2404      H2409   1.082       .  S
C2405      C2406   1.419       .  A
C2406      C2407   1.519       .  S
C2407      F2411   1.385       .  S
C2407      F2412   1.382       .  S
C2407      F2413   1.384       .  S
C2410      F2414   1.383       .  S
C2410      F2415   1.384       .  S
C2410      F2416   1.384       .  S
C2417      C2418   1.407       .  A
C2417      C2422   1.413       .  A
C2417      H2424   1.083       .  S
C2419      C2420   1.414   1_545  A
C2419      C2426   1.518       .  S
C2420      C2421   1.406       .  A
C2420      H2425   1.082       .  S
C2422      C2423   1.521       .  S
C2423      F2427   1.385       .  S
C2423      F2428   1.384       .  S
C2423      F2429   1.383       .  S
C2426      F2430   1.382   1_554  S
C2426      F2431   1.383       .  S
C2426      F2432   1.385   1_554  S
C2433      C2434   1.405       .  A
C2433      C2438   1.409       .  A
C2433      H2440   1.082       .  S
C2434      C2435   1.420       .  A
C2435      C2436   1.407       .  A
C2435      C2442   1.521       .  S
C2436      C2437   1.406       .  A
C2436      H2441   1.082       .  S
C2437      C2438   1.420       .  A
C2438      C2439   1.519       .  S
C2439      F2443   1.385       .  S
C2439      F2444   1.383       .  S
C2439      F2445   1.383       .  S
C2442      F2446   1.383       .  S
C2442      F2447   1.384       .  S
C2442      F2448   1.385       .  S
C2449      C2450   1.407       .  A
C2449      C2454   1.407   1_556  A
C2449      H2456   1.083   1_556  S
C2450      C2451   1.420       .  A
C2451      C2452   1.414       .  A
C2451      C2458   1.517       .  S
C2452      C2453   1.403   1_556  A
C2452      H2457   1.083       .  S
C2453      C2454   1.412       .  A
C2454      C2455   1.517       .  S
C2455      F2459   1.385       .  S
C2455      F2460   1.382       .  S
C2455      F2461   1.383       .  S
C2458      F2462   1.383       .  S
C2458      F2464   1.385       .  S
C2465      C2466   1.403       .  A
C2465      C2470   1.415       .  A
C2465      H2472   1.084       .  S
C2466      C2467   1.408       .  A
C2467      C2468   1.403       .  A
C2467      C2474   1.519   1_554  S
C2468      C2469   1.410       .  A
C2468      H2473   1.083       .  S
C2469      C2470   1.423       .  A
C2470      C2471   1.518       .  S
C2471      F2475   1.385       .  S
C2471      F2476   1.383       .  S
C2471      F2477   1.381       .  S
C2474      F2478   1.383       .  S
C2474      F2479   1.383       .  S
C2474      F2480   1.384       .  S
C2481      C2482   1.407       .  A
C2481      C2486   1.413       .  A
C2481      H2488   1.085       .  S
C2482      C2483   1.419       .  A
C2483      C2484   1.411       .  A
C2483      C2490   1.518       .  S
C2484      C2485   1.407       .  A
C2484      H2489   1.084       .  S
C2485      C2486   1.422       .  A
C2486      C2487   1.520       .  S
C2487      F2491   1.384       .  S
C2487      F2492   1.384       .  S
C2487      F2493   1.383       .  S
C2490      F2494   1.383       .  S
C2490      F2495   1.382       .  S
C2490      F2496   1.385       .  S
C2497      C2498   1.398       .  A
C2497      C2502   1.406       .  A
C2497      H2504   1.083   1_554  S
C2498      C2499   1.415       .  A
C2499      C2500   1.411       .  A
C2499      C2506   1.519       .  S
C2500      C2501   1.405       .  A
C2500      H2505   1.083       .  S
C2501      C2502   1.419       .  A
C2502      C2503   1.519       .  S
C2503      F2507   1.380       .  S
C2503      F2508   1.383       .  S
C2503      F2509   1.384       .  S
C2506      F2510   1.383   1_554  S
C2506      F2511   1.384       .  S
C2506      F2512   1.384       .  S
C2513      C2514   1.400       .  A
C2513      C2518   1.409       .  A
C2513      H2520   1.086   1_556  S
C2514      C2515   1.416       .  A
C2515      C2516   1.411       .  A
C2515      C2522   1.516       .  S
C2516      C2517   1.403       .  A
C2516      H2521   1.084       .  S
C2517      C2518   1.422       .  A
C2518      C2519   1.518       .  S
C2519      F2523   1.384       .  S
C2522      F2526   1.384       .  S
C2522      F2527   1.380   1_556  S
C2522      F2528   1.384       .  S
C2529      C2530   1.409       .  A
C2529      C2534   1.409       .  A
C2529      H2536   1.083       .  S
C2530      C2531   1.419       .  A
C2531      C2532   1.409       .  A
C2531      C2538   1.519       .  S
C2532      C2533   1.406       .  A
C2532      H2537   1.084       .  S
C2533      C2534   1.417       .  A
C2534      C2535   1.520       .  S
C2535      F2539   1.384       .  S
C2535      F2540   1.384       .  S
C2535      F2541   1.383       .  S
C2538      F2542   1.383       .  S
C2538      F2543   1.383       .  S
C2538      F2544   1.385       .  S
C2545      C2546   1.409   1_455  A
C2545      C2550   1.406       .  A
C2545      H2552   1.083       .  S
C2547      C2548   1.412       .  A
C2547      C2554   1.519   1_556  S
C2548      C2549   1.402       .  A
C2548      H2553   1.083       .  S
C2550      C2551   1.520       .  S
C2551      F2555   1.385       .  S
C2551      F2556   1.382       .  S
C2551      F2557   1.384       .  S
C2554      F2558   1.384   1_554  S
C2554      F2559   1.383       .  S
C2554      F2560   1.385       .  S
C2561      C2566   1.414       .  A
C2561      H2568   1.082       .  S
C2562      C2563   1.420       .  A
C2563      C2564   1.409   1_655  A
C2563      C2570   1.521       .  S
C2564      H2569   1.082       .  S
C2565      C2566   1.425       .  A
C2566      C2567   1.519       .  S
C2567      F2571   1.383       .  S
C2567      F2572   1.383       .  S
C2567      F2573   1.385       .  S
C2570      F2574   1.384       .  S
C2570      F2575   1.382       .  S
C2570      F2576   1.385   1_655  S
C2577      C2578   1.400       .  A
C2577      C2582   1.407       .  A
C2577      H2584   1.083       .  S
C2578      C2579   1.419       .  A
C2579      C2580   1.407       .  A
C2579      C2586   1.519       .  S
C2580      C2581   1.401       .  A
C2580      H2585   1.085       .  S
C2581      C2582   1.419       .  A
C2582      C2583   1.517       .  S
C2583      F2587   1.385       .  S
C2583      F2588   1.384       .  S
C2583      F2589   1.380       .  S
C2586      F2590   1.382       .  S
C2586      F2591   1.383       .  S
C2586      F2592   1.383       .  S
C2593      C2594   1.402       .  A
C2593      C2598   1.407       .  A
C2593      H2600   1.082       .  S
C2594      C2595   1.419       .  A
C2595      C2596   1.409       .  A
C2595      C2602   1.518       .  S
C2596      C2597   1.401       .  A
C2596      H2601   1.083       .  S
C2597      C2598   1.417       .  A
C2598      C2599   1.520       .  S
C2599      F2603   1.384       .  S
C2599      F2604   1.383       .  S
C2599      F2605   1.384       .  S
C2602      F2606   1.382       .  S
C2602      F2607   1.383       .  S
C2602      F2608   1.385       .  S
C2609      C2610   1.407       .  A
C2609      C2614   1.410       .  A
C2609      H2616   1.081       .  S
C2610      C2611   1.427       .  A
C2611      C2612   1.415       .  A
C2611      C2618   1.520       .  S
C2612      C2613   1.404       .  A
C2612      H2617   1.081       .  S
C2613      C2614   1.421       .  A
C2614      C2615   1.520       .  S
C2615      F2619   1.385       .  S
C2615      F2620   1.383       .  S
C2615      F2621   1.383       .  S
C2618      F2622   1.383       .  S
C2618      F2623   1.383       .  S
C2618      F2624   1.385       .  S
C2625      C2626   1.405       .  A
C2625      C2630   1.408       .  A
C2626      C2627   1.416       .  A
C2627      C2628   1.407       .  A
C2627      C2634   1.517       .  S
C2628      C2629   1.403       .  A
C2628      H2633   1.084       .  S
C2629      C2630   1.413       .  A
C2630      C2631   1.516       .  S
C2631      F2635   1.385       .  S
C2631      F2636   1.383       .  S
C2631      F2637   1.383       .  S
C2634      F2638   1.385       .  S
C2634      F2639   1.383       .  S
C2634      F2640   1.383       .  S
C2641      C2642   1.408       .  A
C2641      C2646   1.400       .  A
C2641      H2648   1.083       .  S
C2642      C2643   1.423       .  A
C2643      C2644   1.412       .  A
C2643      C2650   1.518       .  S
C2644      C2645   1.401       .  A
C2644      H2649   1.083       .  S
C2645      C2646   1.408       .  A
C2646      C2647   1.520       .  S
C2647      F2651   1.384       .  S
C2647      F2652   1.383       .  S
C2647      F2653   1.383       .  S
C2650      F2654   1.383       .  S
C2650      F2655   1.383       .  S
C2650      F2656   1.385       .  S
C2657      C2658   1.410       .  A
C2657      C2662   1.416       .  A
C2657      H2664   1.081       .  S
C2658      C2659   1.422       .  A
C2659      C2660   1.413       .  A
C2659      C2666   1.519       .  S
C2660      C2661   1.407       .  A
C2660      H2665   1.082       .  S
C2661      C2662   1.422       .  A
C2662      C2663   1.520       .  S
C2663      F2667   1.384       .  S
C2663      F2668   1.383       .  S
C2663      F2669   1.384       .  S
C2666      F2670   1.382       .  S
C2666      F2671   1.383       .  S
C2666      F2672   1.385       .  S
C2673      C2678   1.411       .  A
C2673      H2680   1.082       .  S
C2675      C2676   1.404   1_645  A
C2675      C2682   1.520       .  S
C2676      H2681   1.082       .  S
C2678      C2679   1.520       .  S
C2679      F2683   1.385       .  S
C2679      F2684   1.384       .  S
C2679      F2685   1.382       .  S
C2682      F2686   1.384       .  S
C2682      F2687   1.382   1_545  S
C2682      F2688   1.386       .  S
C2689      C2690   1.401       .  A
C2689      C2694   1.413       .  A
C2689      H2696   1.084       .  S
C2690      C2691   1.410       .  A
C2691      C2692   1.404       .  A
C2691      C2698   1.518       .  S
C2692      C2693   1.408       .  A
C2692      H2697   1.083       .  S
C2693      C2694   1.424       .  A
C2694      C2695   1.518       .  S
C2695      F2699   1.384       .  S
C2695      F2700   1.383       .  S
C2695      F2701   1.383       .  S
C2698      F2702   1.383       .  S
C2698      F2703   1.383       .  S
C2698      F2704   1.384       .  S
C2705      C2706   1.406       .  A
C2705      C2710   1.411       .  A
C2705      H2712   1.083       .  S
C2706      C2707   1.415       .  A
C2707      C2708   1.409       .  A
C2707      C2714   1.518       .  S
C2708      C2709   1.406       .  A
C2708      H2713   1.084       .  S
C2709      C2710   1.415       .  A
C2710      C2711   1.517       .  S
C2711      F2715   1.385       .  S
C2711      F2716   1.383       .  S
C2711      F2717   1.382       .  S
C2714      F2718   1.383       .  S
C2714      F2719   1.383       .  S
C2714      F2720   1.385       .  S
C2721      C2722   1.402       .  A
C2721      C2726   1.408       .  A
C2721      H2728   1.083       .  S
C2722      C2723   1.419       .  A
C2723      C2724   1.406       .  A
C2723      C2730   1.520       .  S
C2724      C2725   1.400       .  A
C2724      H2729   1.084       .  S
C2725      C2726   1.417       .  A
C2726      C2727   1.519       .  S
C2727      F2731   1.381       .  S
C2727      F2732   1.383       .  S
C2727      F2733   1.385       .  S
C2730      F2734   1.382       .  S
C2730      F2735   1.383       .  S
C2730      F2736   1.385       .  S
C2737      C2738   1.403       .  A
C2737      C2742   1.408       .  A
C2737      H2744   1.081       .  S
C2738      C2739   1.422       .  A
C2739      C2740   1.408       .  A
C2739      C2746   1.520       .  S
C2740      C2741   1.399       .  A
C2740      H2745   1.082       .  S
C2741      C2742   1.416       .  A
C2742      C2743   1.517       .  S
C2743      F2747   1.385       .  S
C2743      F2748   1.383       .  S
C2743      F2749   1.381       .  S
C2746      F2750   1.383       .  S
C2746      F2751   1.382       .  S
C2746      F2752   1.385       .  S
C2753      C2754   1.409       .  A
C2753      H2760   1.082       .  S
C2755      C2756   1.411       .  A
C2755      C2762   1.519       .  S
C2756      C2757   1.402       .  A
C2756      H2761   1.083       .  S
C2757      C2758   1.414       .  A
C2759      F2763   1.385       .  S
C2762      F2766   1.383   1_565  S
C2762      F2767   1.383   1_565  S
C2762      F2768   1.385       .  S
C2769      C2770   1.403       .  A
C2769      C2774   1.414       .  A
C2769      H2776   1.086       .  S
C2770      C2771   1.419       .  A
C2771      C2772   1.409       .  A
C2771      C2778   1.519       .  S
C2772      C2773   1.402       .  A
C2772      H2777   1.084       .  S
C2773      C2774   1.421       .  A
C2774      C2775   1.518       .  S
C2775      F2779   1.385       .  S
C2775      F2780   1.382       .  S
C2775      F2781   1.383       .  S
C2778      F2782   1.382       .  S
C2778      F2783   1.384       .  S
C2778      F2784   1.384       .  S
C2785      C2786   1.402       .  A
C2785      C2790   1.408       .  A
C2785      H2792   1.082       .  S
C2786      C2787   1.419       .  A
C2787      C2788   1.410       .  A
C2787      C2794   1.517       .  S
C2788      C2789   1.401       .  A
C2788      H2793   1.083       .  S
C2789      C2790   1.418       .  A
C2790      C2791   1.520       .  S
C2791      F2795   1.384       .  S
C2791      F2796   1.383       .  S
C2791      F2797   1.381       .  S
C2794      F2798   1.384       .  S
C2794      F2799   1.384       .  S
C2794      F2800   1.383       .  S
C2801      C2802   1.404       .  A
C2801      C2806   1.412       .  A
C2801      H2808   1.084       .  S
C2802      C2803   1.415       .  A
C2803      C2804   1.411       .  A
C2803      C2810   1.519       .  S
C2804      C2805   1.412       .  A
C2804      H2809   1.083       .  S
C2805      C2806   1.425       .  A
C2806      C2807   1.519       .  S
C2807      F2811   1.385       .  S
C2807      F2812   1.383       .  S
C2807      F2813   1.383       .  S
C2810      F2814   1.384       .  S
C2810      F2815   1.382       .  S
C2810      F2816   1.385       .  S
C2817      C2818   1.403       .  A
C2817      C2822   1.412       .  A
C2817      H2824   1.094       .  S
C2818      C2819   1.412       .  A
C2819      C2820   1.402       .  A
C2819      C2826   1.517       .  S
C2820      C2821   1.404       .  A
C2820      H2825   1.093       .  S
C2821      C2822   1.419       .  A
C2822      C2823   1.516       .  S
C2823      F2827   1.385       .  S
C2823      F2828   1.379       .  S
C2823      F2829   1.383       .  S
C2826      F2832   1.385       .  S
C2833      C2834   1.402       .  A
C2833      C2838   1.415       .  A
C2833      H2840   1.084       .  S
C2834      C2835   1.411       .  A
C2835      C2836   1.402       .  A
C2835      C2842   1.521       .  S
C2836      C2837   1.409       .  A
C2836      H2841   1.083       .  S
C2837      C2838   1.424       .  A
C2838      C2839   1.518       .  S
C2839      F2843   1.385       .  S
C2839      F2844   1.383       .  S
C2839      F2845   1.382       .  S
C2842      F2846   1.383       .  S
C2842      F2847   1.382       .  S
C2842      F2848   1.385       .  S
C2849      C2850   1.410       .  A
C2849      C2854   1.410       .  A
C2849      H2856   1.083       .  S
C2850      C2851   1.423       .  A
C2851      C2852   1.412       .  A
C2851      C2858   1.519       .  S
C2852      C2853   1.405       .  A
C2852      H2857   1.080       .  S
C2853      C2854   1.416       .  A
C2854      C2855   1.517       .  S
C2855      F2859   1.385       .  S
C2855      F2860   1.380       .  S
C2855      F2861   1.382       .  S
C2858      F2862   1.383       .  S
C2858      F2863   1.383       .  S
C2858      F2864   1.385       .  S
C2865      C2866   1.410   1_455  A
C2865      H2872   1.082       .  S
C2867      C2868   1.413   1_565  A
C2867      C2874   1.519       .  S
C2868      H2873   1.083       .  S
C2870      C2871   1.520       .  S
C2871      F2875   1.385       .  S
C2871      F2876   1.382       .  S
C2871      F2877   1.384       .  S
C2874      F2878   1.384       .  S
C2874      F2879   1.383       .  S
C2874      F2880   1.385   1_565  S
