geometry optimzed in LAMMPS
_audit_creation_date              2020-12-01 
_audit_creation_method            'lammps2cif' 
_symmetry_space_group_name_H-M    'P1' 
_symmetry_Int_Tables_number       1 
_symmetry_cell_setting            triclinic 
loop_ 
_symmetry_equiv_pos_as_xyz 
  x,y,z 
_cell_length_a                    61.41702841 
_cell_length_b                    61.46927085981305 
_cell_length_c                    104.12303644182649 
_cell_angle_alpha                 90.00943049016946 
_cell_angle_beta                  90.03198081703832 
_cell_angle_gamma                 89.94864679958404 
loop_ 
_atom_site_label 
_atom_site_type_symbol 
_atom_site_fract_x 
_atom_site_fract_y 
_atom_site_fract_z 
_atom_site_charge 
N1          N  0.69043350  0.41463523  0.72564601    -0.27000
N2          N  0.70577097  0.41972415  0.71728108    -0.34800
C3          C  0.70983260  0.44115457  0.71801759     0.01400
C4          C  0.69622766  0.45010622  0.72719993     0.07400
C5          C  0.68437293  0.43274810  0.73199072    -0.05700
H6          H  0.72174812  0.44959121  0.71221953     0.08100
H7          H  0.67181899  0.43335494  0.73926817     0.09300
Cu8        Cu  0.71935346  0.39766821  0.70458692     0.44200
Cu9        Cu  0.67762614  0.38349743  0.72712522     0.42000
Cu10       Cu  0.69643923  0.34337747  0.70351690     0.43900
N11         N  0.72857062  0.37437140  0.69131424    -0.34400
N12         N  0.72007701  0.35464316  0.69063226    -0.28600
C13         C  0.72873329  0.34430053  0.68040776    -0.04700
C14         C  0.74325486  0.35828046  0.67436990     0.07500
C15         C  0.74282323  0.37707215  0.68165815     0.01300
H16         H  0.72466934  0.32787606  0.67756261     0.09000
H17         H  0.75168460  0.39195117  0.67981158     0.08000
N18         N  0.67265796  0.33722513  0.71748218    -0.35800
N19         N  0.66602366  0.35183204  0.72595983    -0.28000
C20         C  0.65060552  0.34292268  0.73346060    -0.03200
C21         C  0.64706467  0.32169355  0.72952713     0.05400
C22         C  0.66156513  0.31859508  0.71944272     0.03500
H23         H  0.64241498  0.35139056  0.74118377     0.08600
H24         H  0.66422805  0.30377892  0.71406922     0.07400
N25         N  0.51314191  0.15236622  0.81825928    -0.27000
N26         N  0.49932416  0.13619321  0.81627631    -0.34800
C27         C  0.49497347  0.12639198  0.82752200     0.01400
C28         C  0.50674553  0.13659836  0.83709845     0.07400
C29         C  0.51799225  0.15312140  0.83089160    -0.05700
H30         H  0.48445668  0.11239767  0.82859699     0.08100
H31         H  0.52883118  0.16488323  0.83522448     0.09300
Cu32       Cu  0.48810178  0.12640845  0.79839314     0.44200
Cu33       Cu  0.52496306  0.17249688  0.80358448     0.42000
Cu34       Cu  0.50435936  0.15953274  0.77189558     0.43900
N35         N  0.48391127  0.11697557  0.77943203    -0.34400
N36         N  0.49018036  0.12922765  0.76969307    -0.28600
C37         C  0.48940387  0.11740619  0.75885129    -0.04700
C38         C  0.48209919  0.09673358  0.76184766     0.07500
C39         C  0.47877702  0.09704379  0.77500614     0.01300
H40         H  0.49546613  0.12287581  0.74964631     0.09000
H41         H  0.47511567  0.08321966  0.78106227     0.08000
N42         N  0.52464052  0.18567902  0.77557057    -0.35800
N43         N  0.53309333  0.18998605  0.78698014    -0.28000
C44         C  0.54754992  0.20634641  0.78569378    -0.03200
C45         C  0.54813325  0.21256348  0.77287782     0.05400
C46         C  0.53324445  0.19923845  0.76680172     0.03500
H47         H  0.55718096  0.21298932  0.79346126     0.08600
H48         H  0.52972205  0.19869979  0.75662346     0.07400
N49         N  0.52496933  0.89823201  0.65120848    -0.27000
N50         N  0.51111225  0.91427376  0.65341832    -0.34800
C51         C  0.50486556  0.92291242  0.64213069     0.01400
C52         C  0.51531691  0.91185464  0.63232307     0.07400
C53         C  0.52802167  0.89639500  0.63846011    -0.05700
H54         H  0.49511055  0.93748852  0.64119918     0.08100
H55         H  0.53976594  0.88562688  0.63403364     0.09300
Cu56       Cu  0.50523800  0.92719038  0.67151072     0.44200
Cu57       Cu  0.54211809  0.88210495  0.66554226     0.42000
Cu58       Cu  0.54214935  0.90905721  0.69640381     0.43900
N59         N  0.50739386  0.94177001  0.68945104    -0.34400
N60         N  0.52124665  0.93546344  0.69843205    -0.28600
C61         C  0.51999647  0.94930917  0.70841169    -0.04700
C62         C  0.50484262  0.96530057  0.70553318     0.07500
C63         C  0.49697026  0.95978007  0.69348548     0.01300
H64         H  0.52997513  0.94826586  0.71695670     0.09000
H65         H  0.48480245  0.96834813  0.68793277     0.08000
N66         N  0.56071603  0.88161316  0.69231227    -0.35800
N67         N  0.56020545  0.87132647  0.68116100    -0.28000
C68         C  0.57321759  0.85371821  0.68181805    -0.03200
C69         C  0.58267291  0.85310039  0.69388851     0.05400
C70         C  0.57421357  0.87094095  0.70030722     0.03500
H71         H  0.57561613  0.84220584  0.67408369     0.08600
H72         H  0.57710841  0.87546069  0.71020605     0.07400
N73         N  0.70158478  0.64361030  0.75268423    -0.27000
N74         N  0.71769521  0.63866542  0.76058093    -0.34800
C75         C  0.72023873  0.61691266  0.76075337     0.01400
C76         C  0.70480195  0.60770798  0.75268982     0.07400
C77         C  0.69349421  0.62520916  0.74761205    -0.05700
H78         H  0.73223631  0.60839432  0.76647433     0.08100
H79         H  0.68052296  0.62472375  0.74059275     0.09300
Cu80       Cu  0.73462729  0.66185603  0.77112764     0.44200
Cu81       Cu  0.69076745  0.67503436  0.74938217     0.42000
Cu82       Cu  0.71272051  0.71715541  0.76961690     0.43900
N83         N  0.74596711  0.68759064  0.78220798    -0.34400
N84         N  0.73749497  0.70739722  0.78198602    -0.28600
C85         C  0.74696610  0.71944931  0.79121355    -0.04700
C86         C  0.76215150  0.70665424  0.79747840     0.07500
C87         C  0.76119793  0.68661883  0.79149258     0.01300
H88         H  0.74266702  0.73609742  0.79344542     0.09000
H89         H  0.77005836  0.67207873  0.79414742     0.08000
N90         N  0.68929732  0.72286015  0.75556820    -0.35800
N91         N  0.68169396  0.70739986  0.74796847    -0.28000
C92         C  0.66797822  0.71627734  0.73936747    -0.03200
C93         C  0.66661810  0.73836350  0.74175418     0.05400
C94         C  0.68043517  0.74200412  0.75206017     0.03500
H95         H  0.65977236  0.70734087  0.73183510     0.08600
H96         H  0.68438980  0.75752050  0.75637331     0.07400
N97         N  0.05568628  0.53446025  0.02731846    -0.27000
N98         N  0.07524331  0.52572208  0.02863633    -0.34800
C99         C  0.07556373  0.51318789  0.03918366     0.01400
C100        C  0.05523308  0.51386724  0.04482467     0.07400
C101        C  0.04305168  0.52776584  0.03715813    -0.05700
H102        H  0.08975695  0.50455706  0.04264609     0.08100
H103        H  0.02627817  0.53256017  0.03859599     0.09300
Cu104      Cu  0.10129188  0.53144696  0.01653212     0.44200
Cu105      Cu  0.04773285  0.55499325  0.01202806     0.42000
Cu106      Cu  0.09219130  0.56478918  0.98903985     0.43900
N107        N  0.12582734  0.53993453  0.00390537    -0.34400
N108        N  0.12249174  0.55205109  0.99361681    -0.28600
C109        C  0.14159896  0.55515365  0.98757194    -0.04700
C110        C  0.15777669  0.54473899  0.99452129     0.07500
C111        C  0.14711864  0.53505813  0.00473854     0.01300
H112        H  0.14365580  0.56472729  0.97893848     0.09000
H113        H  0.15426188  0.52515526  0.01222678     0.08000
N114        N  0.06129526  0.57821565  0.98755476    -0.35800
N115        N  0.04528584  0.57491850  0.99582963    -0.28000
C116        C  0.02791061  0.58673278  0.99213062    -0.03200
C117        C  0.03330014  0.59821762  0.98111357     0.05400
C118        C  0.05452108  0.59214643  0.97842915     0.03500
H119        H  0.01255005  0.58719582  0.99720740     0.08600
H120        H  0.06434917  0.59724923  0.97036269     0.07400
N121        N  0.86002580  0.73704094  0.89785535    -0.27000
N122        N  0.84123322  0.74628658  0.90080024    -0.34800
C123        C  0.82895655  0.74771858  0.89015101     0.01400
C124        C  0.84039633  0.73866584  0.88003876     0.07400
C125        C  0.86016688  0.73233355  0.88523830    -0.05700
H126        H  0.81235749  0.75362290  0.88995324     0.08100
H127        H  0.87335895  0.72411261  0.88036027     0.09300
Cu128      Cu  0.83137026  0.75340444  0.91933775     0.44200
Cu129      Cu  0.88312660  0.72787092  0.91134925     0.42000
Cu130      Cu  0.86603393  0.73323094  0.94447091     0.43900
N131        N  0.82318727  0.75484220  0.93859440    -0.34400
N132        N  0.83602255  0.74757027  0.94782700    -0.28600
C133        C  0.82520010  0.74832632  0.95902470    -0.04700
C134        C  0.80447764  0.75643860  0.95677015     0.07500
C135        C  0.80380336  0.76029955  0.94366335     0.01300
H136        H  0.83147621  0.74206019  0.96800414     0.09000
H137        H  0.78972456  0.76489433  0.93803653     0.08000
N138        N  0.89396315  0.71691140  0.93877509    -0.35800
N139        N  0.90049779  0.71524802  0.92672629    -0.28000
C140        C  0.91878794  0.70318449  0.92632291    -0.03200
C141        C  0.92386008  0.69664596  0.93871774     0.05400
C142        C  0.90781906  0.70586469  0.94633560     0.03500
H143        H  0.92769473  0.69960688  0.91762353     0.08600
H144        H  0.90607967  0.70428731  0.95663437     0.07400
N145        N  0.63232724  0.69280879  0.07224138    -0.27000
N146        N  0.64662290  0.70849224  0.07019217    -0.34800
C147        C  0.65759914  0.71247323  0.08108945     0.01400
C148        C  0.65007632  0.69849028  0.09046250     0.07400
C149        C  0.63390737  0.68634178  0.08456015    -0.05700
H150        H  0.67059293  0.72424667  0.08201045     0.08100
H151        H  0.62398781  0.67378820  0.08887699     0.09300
Cu152      Cu  0.65224646  0.72262802  0.05254825     0.44200
Cu153      Cu  0.61153201  0.68103731  0.05808475     0.42000
Cu154      Cu  0.61682926  0.70698663  0.02682966     0.43900
N155        N  0.65846465  0.72987616  0.03357058    -0.34400
N156        N  0.64544745  0.72407116  0.02407013    -0.28600
C157        C  0.65543488  0.72809316  0.01284178    -0.04700
C158        C  0.67583009  0.73658922  0.01543142     0.07500
C159        C  0.67707845  0.73777508  0.02866555     0.01300
H160        H  0.64880131  0.72399526  0.00352624     0.09000
H161        H  0.69111579  0.74243081  0.03431537     0.08000
N162        N  0.59290189  0.68456144  0.03131140    -0.35800
N163        N  0.59143407  0.67444951  0.04247925    -0.28000
C164        C  0.57525328  0.65974606  0.04183773    -0.03200
C165        C  0.56583716  0.66086870  0.02973932     0.05400
C166        C  0.57763982  0.67668663  0.02332561     0.03500
H167        H  0.57123160  0.64859237  0.04950066     0.08600
H168        H  0.57554784  0.68186815  0.01347088     0.07400
N169        N  0.41964756  0.50277564  0.94614492    -0.27000
N170        N  0.39922609  0.49723351  0.94385000    -0.34800
C171        C  0.39864889  0.48379107  0.93367440     0.01400
C172        C  0.41968282  0.48097741  0.92927184     0.07400
C173        C  0.43262219  0.49319946  0.93739936    -0.05700
H174        H  0.38392082  0.47733322  0.92943762     0.08100
H175        H  0.45006763  0.49540360  0.93681622     0.09300
Cu176      Cu  0.37298733  0.50977092  0.95393212     0.44200
Cu177      Cu  0.42849437  0.52421409  0.96055172     0.42000
Cu178      Cu  0.38445764  0.55137188  0.97772684     0.43900
N179        N  0.34926782  0.52472866  0.96499528    -0.34400
N180        N  0.35330406  0.53994886  0.97364779    -0.28600
C181        C  0.33439366  0.54600208  0.97913014    -0.04700
C182        C  0.31770897  0.53382209  0.97377640     0.07500
C183        C  0.32776202  0.52071223  0.96473946     0.01300
H184        H  0.33291530  0.55820703  0.98656812     0.09000
H185        H  0.32002862  0.50929186  0.95828767     0.08000
N186        N  0.41733627  0.55824280  0.98042918    -0.35800
N187        N  0.43322966  0.54777477  0.97447382    -0.28000
C188        C  0.45248175  0.55552876  0.97855102    -0.03200
C189        C  0.44856549  0.57188293  0.98733972     0.05400
C190        C  0.42612577  0.57315710  0.98835721     0.03500
H191        H  0.46818202  0.54994951  0.97517518     0.08600
H192        H  0.41688500  0.58395840  0.99449078     0.07400
N193        N  0.42129162  0.64531745  0.65753908    -0.27000
N194        N  0.43009643  0.62607877  0.65975103    -0.34800
C195        C  0.42833234  0.61374880  0.64916823     0.01400
C196        C  0.41777555  0.62571162  0.63978387     0.07400
C197        C  0.41378524  0.64579631  0.64539949    -0.05700
H198        H  0.43405791  0.59714478  0.64843481     0.08100
H199        H  0.40624252  0.65984094  0.64100903     0.09300
Cu200      Cu  0.44367912  0.61721178  0.67706836     0.44200
Cu201      Cu  0.41914176  0.66934131  0.67148844     0.42000
Cu202      Cu  0.44402311  0.65693883  0.70252328     0.43900
N203        N  0.45460168  0.61082673  0.69538785    -0.34400
N204        N  0.45506552  0.62533006  0.70474515    -0.28600
C205        C  0.46086002  0.61533575  0.71571928    -0.04700
C206        C  0.46383655  0.59341781  0.71313296     0.07500
C207        C  0.46002063  0.59126794  0.70011602     0.01300
H208        H  0.46195673  0.62334129  0.72494503     0.09000
H209        H  0.45981762  0.57631478  0.69463167     0.08000
N210        N  0.42618003  0.68482559  0.69874775    -0.35800
N211        N  0.41687873  0.68916737  0.68757872    -0.28000
C212        C  0.40422289  0.70688523  0.68888584    -0.03200
C213        C  0.40572092  0.71417241  0.70144459     0.05400
C214        C  0.41970130  0.69967817  0.70741896     0.03500
H215        H  0.39382357  0.71333377  0.68140447     0.08600
H216        H  0.42354921  0.69892373  0.71755019     0.07400
N217        N  0.21939539  0.84212230  0.77773594    -0.27000
N218        N  0.21138761  0.86209461  0.77756615    -0.34800
C219        C  0.19275665  0.86261641  0.78429838     0.01400
C220        C  0.18877482  0.84205370  0.78906792     0.07400
C221        C  0.20614048  0.82947328  0.78486082    -0.05700
H222        H  0.18366441  0.87727110  0.78640272     0.08100
H223        H  0.20934777  0.81264520  0.78724755     0.09300
Cu224      Cu  0.22745500  0.88876978  0.77013145     0.44200
Cu225      Cu  0.24869078  0.83384775  0.76875352     0.42000
Cu226      Cu  0.27938814  0.88039035  0.75589068     0.43900
N227        N  0.24608463  0.91382222  0.76282025    -0.34400
N228        N  0.26522778  0.91079570  0.75735590    -0.28600
C229        C  0.27254928  0.92994741  0.75285428    -0.04700
C230        C  0.25714133  0.94578681  0.75555967     0.07500
C231        C  0.24078698  0.93497595  0.76211307     0.01300
H232        H  0.28766606  0.93206366  0.74767289     0.09000
H233        H  0.22604814  0.94185158  0.76607917     0.08000
N234        N  0.28856425  0.84822294  0.75382629    -0.35800
N235        N  0.27751031  0.83128378  0.75818074    -0.28000
C236        C  0.28737262  0.81296895  0.75408064    -0.03200
C237        C  0.30525762  0.81870133  0.74667924     0.05400
C238        C  0.30565689  0.84117212  0.74696234     0.03500
H239        H  0.28153731  0.79667700  0.75597758     0.08600
H240        H  0.31738233  0.85178719  0.74239526     0.07400
N241        N  0.26381999  0.13880343  0.72816271    -0.27000
N242        N  0.24798102  0.13353080  0.72017606    -0.34800
C243        C  0.24368011  0.11219939  0.72138752     0.01400
C244        C  0.25731193  0.10372226  0.73072501     0.07400
C245        C  0.26999152  0.12102920  0.73473969    -0.05700
H246        H  0.23163869  0.10347382  0.71581966     0.08100
H247        H  0.28315471  0.12064722  0.74164286     0.09300
Cu248      Cu  0.23382875  0.15567628  0.70777405     0.44200
Cu249      Cu  0.27648761  0.16981137  0.72929158     0.42000
Cu250      Cu  0.25340674  0.21158427  0.70827655     0.43900
N251        N  0.22355709  0.17957754  0.69517944    -0.34400
N252        N  0.23049938  0.19994060  0.69520442    -0.28600
C253        C  0.22153163  0.21046723  0.68514430    -0.04700
C254        C  0.20867352  0.19586791  0.67840629     0.07500
C255        C  0.21012834  0.17658936  0.68516695     0.01300
H256        H  0.22484520  0.22720926  0.68261241     0.09000
H257        H  0.20236107  0.16130055  0.68283803     0.08000
N258        N  0.27776763  0.21727008  0.72180883    -0.35800
N259        N  0.28612633  0.20195857  0.72925365    -0.28000
C260        C  0.30122125  0.21079940  0.73698023    -0.03200
C261        C  0.30270510  0.23273763  0.73423063     0.05400
C262        C  0.28741809  0.23632564  0.72465268     0.03500
H263        H  0.30989160  0.20195675  0.74436671     0.08600
H264        H  0.28351042  0.25169446  0.72013596     0.07400
N265        N  0.43198033  0.40243985  0.82305742    -0.27000
N266        N  0.44510073  0.41924623  0.82140795    -0.34800
C267        C  0.44965015  0.42812863  0.83287501     0.01400
C268        C  0.43894782  0.41634732  0.84222705     0.07400
C269        C  0.42764895  0.40033071  0.83567405    -0.05700
H270        H  0.45938947  0.44260170  0.83424990     0.08100
H271        H  0.41693082  0.38820679  0.83975381     0.09300
Cu272      Cu  0.45514486  0.43055253  0.80370416     0.44200
Cu273      Cu  0.42057564  0.38356790  0.80793557     0.42000
Cu274      Cu  0.44346731  0.39660855  0.77655897     0.43900
N275        N  0.46138934  0.43971192  0.78499017    -0.34400
N276        N  0.45765362  0.42696633  0.77501872    -0.28600
C277        C  0.46090131  0.43833459  0.76417270    -0.04700
C278        C  0.46655105  0.45939020  0.76749038     0.07500
C279        C  0.46704319  0.45957182  0.78076895     0.01300
H280        H  0.45812495  0.43201702  0.75461844     0.09000
H281        H  0.46972201  0.47352442  0.78690615     0.08000
N282        N  0.42153506  0.37170250  0.77977579    -0.35800
N283        N  0.41257704  0.36746601  0.79104030    -0.28000
C284        C  0.39740046  0.35194101  0.78948947    -0.03200
C285        C  0.39655769  0.34628319  0.77660980     0.05400
C286        C  0.41240354  0.35892246  0.77080180     0.03500
H287        H  0.38729789  0.34564491  0.79714259     0.08600
H288        H  0.41702121  0.35900900  0.76078764     0.07400
N289        N  0.57880512  0.34161685  0.40625049    -0.27000
N290        N  0.59902962  0.33536394  0.40852627    -0.34800
C291        C  0.60884474  0.33039708  0.39742345     0.01400
C292        C  0.59442758  0.33422662  0.38750574     0.07400
C293        C  0.57533031  0.34098197  0.39345220    -0.05700
H294        H  0.62548121  0.32476810  0.39667240     0.08100
H295        H  0.56031771  0.34575909  0.38879854     0.09300
Cu296      Cu  0.61387800  0.33588004  0.42621670     0.44200
Cu297      Cu  0.55789960  0.35131014  0.42102521     0.42000
Cu298      Cu  0.58206464  0.34727999  0.45353670     0.43900
N299        N  0.62697937  0.33827077  0.44432700    -0.34400
N300        N  0.61510517  0.34174861  0.45466507    -0.28600
C301        C  0.62808501  0.34138400  0.46506425    -0.04700
C302        C  0.64929204  0.33780227  0.46099680     0.07500
C303        C  0.64786119  0.33583335  0.44777469     0.01300
H304        H  0.62228439  0.34283549  0.47482442     0.09000
H305        H  0.66098449  0.33249741  0.44113035     0.08000
N306        N  0.55085517  0.35780784  0.44967617    -0.35800
N307        N  0.54210848  0.35974662  0.43811405    -0.28000
C308        C  0.52266280  0.36967168  0.43930598    -0.03200
C309        C  0.51899745  0.37408234  0.45220873     0.05400
C310        C  0.53734139  0.36643307  0.45842786     0.03500
H311        H  0.51244556  0.37434745  0.43129876     0.08600
H312        H  0.54149486  0.36858775  0.46844154     0.07400
N313        N  0.32191923  0.52362810  0.49921147    -0.27000
N314        N  0.31676639  0.53473632  0.50964617    -0.34800
C315        C  0.29538189  0.53928921  0.50943219     0.01400
C316        C  0.28653363  0.53040881  0.49839813     0.07400
C317        C  0.30388695  0.52084324  0.49205426    -0.05700
H318        H  0.28699339  0.54860896  0.51672491     0.08100
H319        H  0.30337647  0.51219001  0.48300952     0.09300
Cu320      Cu  0.33880352  0.54326215  0.52377657     0.44200
Cu321      Cu  0.35310102  0.51223468  0.49552702     0.42000
Cu322      Cu  0.39460636  0.52753077  0.51882286     0.43900
N323        N  0.36368432  0.55106639  0.53631542    -0.34400
N324        N  0.38426257  0.54571520  0.53438931    -0.28600
C325        C  0.39633486  0.55327051  0.54419741    -0.04700
C326        C  0.38265490  0.56399571  0.55265192     0.07500
C327        C  0.36205561  0.56206914  0.54742052     0.01300
H328        H  0.41365423  0.55060852  0.54525361     0.09000
H329        H  0.34698357  0.56820858  0.55139430     0.08000
N330        N  0.40020933  0.50726679  0.50330471    -0.35800
N331        N  0.38511261  0.50146641  0.49491957    -0.28000
C332        C  0.39365982  0.48679529  0.48677198    -0.03200
C333        C  0.41521385  0.48339072  0.49010603     0.05400
C334        C  0.41875388  0.49654190  0.50067626     0.03500
H335        H  0.38467842  0.47874969  0.47919707     0.08600
H336        H  0.43336484  0.49741678  0.50645967     0.07400
N337        N  0.83182615  0.36086773  0.56951278    -0.27000
N338        N  0.81699413  0.34567573  0.56746575    -0.34800
C339        C  0.80694769  0.34099309  0.57858217     0.01400
C340        C  0.81563456  0.35399324  0.58812124     0.07400
C341        C  0.83147414  0.36634540  0.58204821    -0.05700
H342        H  0.79392179  0.32927828  0.57959682     0.08100
H343        H  0.84206730  0.37829264  0.58641739     0.09300
Cu344      Cu  0.81004932  0.33260782  0.54963183     0.44200
Cu345      Cu  0.85178990  0.37314242  0.55501135     0.42000
Cu346      Cu  0.84415521  0.34891222  0.52338725     0.43900
N347        N  0.80375614  0.32448766  0.53073406    -0.34400
N348        N  0.81654262  0.33009392  0.52110044    -0.28600
C349        C  0.80615179  0.32618466  0.50998872    -0.04700
C350        C  0.78569653  0.31788789  0.51272658     0.07500
C351        C  0.78484611  0.31698934  0.52600702     0.01300
H352        H  0.81206926  0.33134353  0.50069043     0.09000
H353        H  0.77060256  0.31382063  0.53181974     0.08000
N354        N  0.86690915  0.37281620  0.52733269    -0.35800
N355        N  0.86974349  0.38174494  0.53877454    -0.28000
C356        C  0.88528922  0.39710746  0.53787331    -0.03200
C357        C  0.89254880  0.39784072  0.52527831     0.05400
C358        C  0.88036514  0.38237246  0.51886269     0.03500
H359        H  0.89053947  0.40733845  0.54574149     0.08600
H360        H  0.88115142  0.37841040  0.50874630     0.07400
N361        N  0.09343912  0.54076538  0.47371230    -0.27000
N362        N  0.09781586  0.55350785  0.46382915    -0.34800
C363        C  0.11940105  0.55689822  0.46323617     0.01400
C364        C  0.12915652  0.54592248  0.47331180     0.07400
C365        C  0.11219300  0.53571740  0.47968915    -0.05700
H366        H  0.12742122  0.56585514  0.45565626     0.08100
H367        H  0.11345593  0.52495720  0.48787990     0.09300
Cu368      Cu  0.07459476  0.56436190  0.45098910     0.44200
Cu369      Cu  0.06241984  0.52915712  0.47772287     0.42000
Cu370      Cu  0.02112052  0.54092056  0.45330581     0.43900
N371        N  0.04942661  0.57216444  0.43865870    -0.34400
N372        N  0.02987328  0.56323663  0.43917679    -0.28600
C373        C  0.01764076  0.57133330  0.42954200    -0.04700
C374        C  0.03017451  0.58610185  0.42274051     0.07500
C375        C  0.05014128  0.58628858  0.42883165     0.01300
H376        H  0.00086685  0.56696319  0.42770568     0.09000
H377        H  0.06429228  0.59574743  0.42618174     0.08000
N378        N  0.01637181  0.52024522  0.46890612    -0.35800
N379        N  0.03102484  0.51658042  0.47798256    -0.28000
C380        C  0.02262749  0.50266467  0.48664889    -0.03200
C381        C  0.00187037  0.49702615  0.48272579     0.05400
C382        C  0.99838698  0.50857045  0.47150353     0.03500
H383        H  0.03120901  0.49665258  0.49500568     0.08600
H384        H  0.98380647  0.50854482  0.46566733     0.07400
N385        N  0.24189142  0.23252396  0.28281359    -0.27000
N386        N  0.24391567  0.21140255  0.28488418    -0.34800
C387        C  0.25347193  0.20817511  0.29631964     0.01400
C388        C  0.25741754  0.22818698  0.30185430     0.07400
C389        C  0.24994194  0.24334265  0.29302985    -0.05700
H390        H  0.25732212  0.19237907  0.30030733     0.08100
H391        H  0.25071668  0.26086852  0.29384601     0.09300
Cu392      Cu  0.23428979  0.18763111  0.27209996     0.44200
Cu393      Cu  0.22860858  0.24503296  0.26595011     0.42000
Cu394      Cu  0.21292884  0.20446376  0.24168690     0.43900
N395        N  0.22681173  0.16612395  0.25754659    -0.34400
N396        N  0.21944854  0.17216900  0.24617632    -0.28600
C397        C  0.21729776  0.15439909  0.23872236    -0.04700
C398        C  0.22389540  0.13635181  0.24572545     0.07500
C399        C  0.22945160  0.14444776  0.25768807     0.01300
H400        H  0.21160676  0.15462654  0.22888789     0.09000
H401        H  0.23484299  0.13531906  0.26597833     0.08000
N402        N  0.20663521  0.23761169  0.24022955    -0.35800
N403        N  0.21255207  0.25229102  0.24884985    -0.28000
C404        C  0.20443578  0.27177452  0.24538748    -0.03200
C405        C  0.19284348  0.26928954  0.23406433     0.05400
C406        C  0.19451004  0.24737826  0.23114067     0.03500
H407        H  0.20561940  0.28634848  0.25116946     0.08600
H408        H  0.18668232  0.23895601  0.22326919     0.07400
N409        N  0.04542073  0.43548637  0.15185161    -0.27000
N410        N  0.03120759  0.45126053  0.15392748    -0.34800
C411        C  0.02668636  0.46122174  0.14274938     0.01400
C412        C  0.03884934  0.45146448  0.13319676     0.07400
C413        C  0.05051158  0.43514885  0.13927458    -0.05700
H414        H  0.01628222  0.47533803  0.14177093     0.08100
H415        H  0.06227034  0.42427205  0.13495506     0.09300
Cu416      Cu  0.02154637  0.46109853  0.17204573     0.44200
Cu417      Cu  0.05853947  0.41662588  0.16650357     0.42000
Cu418      Cu  0.05107670  0.43745625  0.19882018     0.43900
N419        N  0.02049339  0.47329132  0.19054660    -0.34400
N420        N  0.03168884  0.46506500  0.20024604    -0.28600
C421        C  0.02990666  0.47849072  0.21038758    -0.04700
C422        C  0.01726153  0.49617198  0.20684940     0.07500
C423        C  0.01128104  0.49211031  0.19425814     0.01300
H424        H  0.03831332  0.47622890  0.21942486     0.09000
H425        H  0.00169600  0.50244456  0.18803640     0.08000
N426        N  0.06972963  0.41019501  0.19450933    -0.35800
N427        N  0.07184548  0.40226260  0.18277937    -0.28000
C428        C  0.08472770  0.38458193  0.18320087    -0.03200
C429        C  0.09159663  0.38144887  0.19576145     0.05400
C430        C  0.08146183  0.39790085  0.20267018     0.03500
H431        H  0.08855670  0.37470739  0.17492049     0.08600
H432        H  0.08279843  0.40095020  0.21287462     0.07400
N433        N  0.21697096  0.94121136  0.22439029    -0.27000
N434        N  0.22381649  0.94577053  0.21266435    -0.34800
C435        C  0.22574224  0.96742409  0.21141552     0.01400
C436        C  0.21960176  0.97709470  0.22285140     0.07400
C437        C  0.21438800  0.95992718  0.23092322    -0.05700
H438        H  0.23091091  0.97555513  0.20272197     0.08100
H439        H  0.20926745  0.96086658  0.24084241     0.09300
Cu440      Cu  0.22948633  0.92275169  0.19859060     0.44200
Cu441      Cu  0.21009631  0.90985705  0.23063361     0.42000
Cu442      Cu  0.21396903  0.86802026  0.20593155     0.43900
N443        N  0.23257751  0.89737901  0.18570198    -0.34400
N444        N  0.22694218  0.87715486  0.18838494    -0.28600
C445        C  0.23123805  0.86450250  0.17815480    -0.04700
C446        C  0.23973871  0.87747972  0.16851769     0.07500
C447        C  0.24053986  0.89819664  0.17369667     0.01300
H448        H  0.22844674  0.84713841  0.17777263     0.09000
H449        H  0.24697323  0.91271171  0.16922525     0.08000
N450        N  0.20102346  0.86293215  0.22405516    -0.35800
N451        N  0.20002396  0.87788445  0.23316074    -0.28000
C452        C  0.18949831  0.86953134  0.24335897    -0.03200
C453        C  0.18363229  0.84825646  0.24057379     0.05400
C454        C  0.19106186  0.84479110  0.22817993     0.03500
H455        H  0.18559882  0.87859812  0.25196341     0.08600
H456        H  0.18826566  0.83065189  0.22223083     0.07400
N457        N  0.02966949  0.68386882  0.32211853    -0.27000
N458        N  0.01630852  0.66819488  0.31844491    -0.34800
C459        C  0.00912545  0.65746180  0.32884644     0.01400
C460        C  0.01830536  0.66677592  0.33964839     0.07400
C461        C  0.03143931  0.68334758  0.33501136    -0.05700
H462        H  0.99917598  0.64295972  0.32848917     0.08100
H463        H  0.04212868  0.69370196  0.34056290     0.09300
Cu464      Cu  0.01107811  0.65926796  0.29954668     0.44200
Cu465      Cu  0.04623529  0.70395729  0.30929311     0.42000
Cu466      Cu  0.04168878  0.68781013  0.27575891     0.43900
N467        N  0.01316389  0.64911935  0.28065868    -0.34400
N468        N  0.02490364  0.65938893  0.27194050    -0.28600
C469        C  0.02540942  0.64742189  0.26114110    -0.04700
C470        C  0.01317767  0.62882375  0.26311813     0.07500
C471        C  0.00576675  0.63038697  0.27563080     0.01300
H472        H  0.03476110  0.65149292  0.25267275     0.09000
H473        H  0.99696105  0.61813616  0.28097665     0.08000
N474        N  0.05890799  0.71471139  0.28200341    -0.35800
N475        N  0.06084592  0.72065295  0.29415725    -0.28000
C476        C  0.07368753  0.73838430  0.29477683    -0.03200
C477        C  0.08025109  0.74369519  0.28242194     0.05400
C478        C  0.07037161  0.72843003  0.27460368     0.03500
H479        H  0.07778353  0.74681519  0.30356778     0.08600
H480        H  0.07179560  0.72709487  0.26427556     0.07400
N481        N  0.87650111  0.03014795  0.02670096    -0.27000
N482        N  0.85583594  0.03613049  0.02714648    -0.34800
C483        C  0.85226487  0.04746262  0.03795640     0.01400
C484        C  0.87164267  0.04899201  0.04463876     0.07400
C485        C  0.88663288  0.03753939  0.03732198    -0.05700
H486        H  0.83655763  0.05376088  0.04083316     0.08100
H487        H  0.90365270  0.03490620  0.03951534     0.09300
Cu488      Cu  0.83293351  0.02872376  0.01332566     0.44200
Cu489      Cu  0.88957134  0.01231202  0.01153081     0.42000
Cu490      Cu  0.85041568  0.99845672  0.98610930     0.43900
N491        N  0.81202951  0.01909408  0.99890270    -0.34400
N492        N  0.81832771  0.00766665  0.98883054    -0.28600
C493        C  0.80090250  0.00351956  0.98138254    -0.04700
C494        C  0.78277606  0.01276795  0.98712676     0.07500
C495        C  0.79050721  0.02266472  0.99814457     0.01300
H496        H  0.80148176  0.99471831  0.97239294     0.09000
H497        H  0.78112450  0.03160764  0.00518181     0.08000
N498        N  0.88296808  0.98966465  0.98601398    -0.35800
N499        N  0.89720642  0.99442154  0.99513263    -0.28000
C500        C  0.91646432  0.98521443  0.99214000    -0.03200
C501        C  0.91408463  0.97387955  0.98071646     0.05400
C502        C  0.89273818  0.97738827  0.97704089     0.03500
H503        H  0.93096260  0.98620130  0.99801859     0.08600
H504        H  0.88476480  0.97139283  0.96848094     0.07400
N505        N  0.08342347  0.84540737  0.88666154    -0.27000
N506        N  0.09971262  0.83211884  0.88949406    -0.34800
C507        C  0.10898515  0.82502531  0.87861386     0.01400
C508        C  0.09824730  0.83416855  0.86829947     0.07400
C509        C  0.08225370  0.84726470  0.87374640    -0.05700
H510        H  0.12361490  0.81522637  0.87827736     0.08100
H511        H  0.07113669  0.85792766  0.86870737     0.09300
Cu512      Cu  0.11245747  0.82673062  0.90757389     0.44200
Cu513      Cu  0.06451264  0.86133667  0.90066422     0.42000
Cu514      Cu  0.08591907  0.85314188  0.93288021     0.43900
N515        N  0.12581537  0.82843385  0.92574280    -0.34400
N516        N  0.11555045  0.83824777  0.93522609    -0.28600
C517        C  0.12822116  0.83821640  0.94571084    -0.04700
C518        C  0.14776691  0.82831969  0.94261433     0.07500
C519        C  0.14553591  0.82199938  0.92989335     0.01300
H520        H  0.12346543  0.84502957  0.95485990     0.09000
H521        H  0.15760547  0.81399839  0.92397720     0.08000
N522        N  0.05775394  0.86986282  0.92898835    -0.35800
N523        N  0.04964942  0.87345645  0.91741059    -0.28000
C524        C  0.03128346  0.88537351  0.91871505    -0.03200
C525        C  0.02794489  0.88939523  0.93172459     0.05400
C526        C  0.04499903  0.87917166  0.93786099     0.03500
H527        H  0.02099623  0.89043149  0.91082403     0.08600
H528        H  0.04810533  0.87872926  0.94808953     0.07400
N529        N  0.31701533  0.84610721  0.06323760    -0.27000
N530        N  0.30122088  0.83210707  0.06078745    -0.34800
C531        C  0.29054326  0.82774362  0.07174630     0.01400
C532        C  0.30004093  0.83949624  0.08162935     0.07400
C533        C  0.31664855  0.85113477  0.07580154    -0.05700
H534        H  0.27644231  0.81726621  0.07237757     0.08100
H535        H  0.32705834  0.86321692  0.08017669     0.09300
Cu536      Cu  0.29318836  0.82104235  0.04257910     0.44200
Cu537      Cu  0.33821531  0.85831236  0.04950139     0.42000
Cu538      Cu  0.33120827  0.83564815  0.01797978     0.43900
N539        N  0.28785009  0.81497488  0.02324815    -0.34400
N540        N  0.30229788  0.81986659  0.01432316    -0.28600
C541        C  0.29337308  0.81689363  0.00270500    -0.04700
C542        C  0.27214515  0.80988958  0.00429836     0.07500
C543        C  0.26920021  0.80887012  0.01749588     0.01300
H544        H  0.30116481  0.82138000  0.99377317     0.09000
H545        H  0.25406442  0.80605209  0.02253480     0.08000
N546        N  0.35607921  0.85666883  0.02267902    -0.35800
N547        N  0.35853355  0.86545909  0.03416355    -0.28000
C548        C  0.37553999  0.87922802  0.03384279    -0.03200
C549        C  0.38427727  0.87891128  0.02156801     0.05400
C550        C  0.37134445  0.86458420  0.01474209     0.03500
H551        H  0.38064269  0.88923783  0.04183864     0.08600
H552        H  0.37270156  0.86044965  0.00467170     0.07400
N553        N  0.58788469  0.01180475  0.96533134    -0.27000
N554        N  0.59110301  0.03021253  0.95908702    -0.34800
C555        C  0.61250881  0.03481690  0.95925571     0.01400
C556        C  0.62324344  0.01858430  0.96603557     0.07400
C557        C  0.60705560  0.00409916  0.96953833    -0.05700
H558        H  0.61971122  0.04900793  0.95482230     0.08100
H559        H  0.60893674  0.98884723  0.97457756     0.09300
Cu560      Cu  0.56606801  0.04743296  0.95030289     0.44200
Cu561      Cu  0.55759197  0.99851385  0.96849194     0.42000
Cu562      Cu  0.51134579  0.02557833  0.95415755     0.43900
N563        N  0.53890252  0.05896444  0.94052474    -0.34400
N564        N  0.51917153  0.05052451  0.94153513    -0.28600
C565        C  0.50614758  0.05969066  0.93264053    -0.04700
C566        C  0.51815577  0.07491172  0.92588596     0.07500
C567        C  0.53884668  0.07391394  0.93110501     0.01300
H568        H  0.48945514  0.05496109  0.93085380     0.09000
H569        H  0.55319874  0.08227729  0.92766793     0.08000
N570        N  0.50875330  0.00001886  0.96709353    -0.35800
N571        N  0.52576949  0.98998475  0.97213686    -0.28000
C572        C  0.51885466  0.97417772  0.98004024    -0.03200
C573        C  0.49636865  0.97411117  0.97989546     0.05400
C574        C  0.49048870  0.99085048  0.97169951     0.03500
H575        H  0.52945858  0.96378243  0.98563169     0.08600
H576        H  0.47413914  0.99585369  0.96917866     0.07400
N577        N  0.10245427  0.19897738  0.58022252    -0.27000
N578        N  0.11604171  0.21390400  0.57584360    -0.34800
C579        C  0.12798396  0.22164281  0.58562000     0.01400
C580        C  0.12178038  0.21115849  0.59677915     0.07400
C581        C  0.10550485  0.19686424  0.59298186    -0.05700
H582        H  0.14149196  0.23276441  0.58448656     0.08100
H583        H  0.09790334  0.18444707  0.59880985     0.09300
Cu584      Cu  0.12256342  0.21934239  0.55666248     0.44200
Cu585      Cu  0.08338965  0.17954933  0.56823121     0.42000
Cu586      Cu  0.10481012  0.17713593  0.53573631     0.43900
N587        N  0.13425531  0.21575461  0.53819678    -0.34400
N588        N  0.12847654  0.19944464  0.53068268    -0.28600
C589        C  0.14073221  0.19982684  0.52000014    -0.04700
C590        C  0.15477889  0.21737221  0.52078769     0.07500
C591        C  0.15031808  0.22702030  0.53250240     0.01300
H592        H  0.13994011  0.18783961  0.51240382     0.09000
H593        H  0.15905220  0.24032579  0.53693946     0.08000
N594        N  0.07738808  0.16052915  0.54175715    -0.35800
N595        N  0.06898504  0.16175619  0.55342222    -0.28000
C596        C  0.04985916  0.15100576  0.55353203    -0.03200
C597        C  0.04616418  0.14251095  0.54135922     0.05400
C598        C  0.06398687  0.14898605  0.53419801     0.03500
H599        H  0.03897281  0.15045334  0.56168356     0.08600
H600        H  0.06665868  0.14620592  0.52405911     0.07400
N601        N  0.83170763  0.02134577  0.48580344    -0.27000
N602        N  0.82839324  0.00717645  0.47646941    -0.34800
C603        C  0.80693364  0.00379778  0.47513424     0.01400
C604        C  0.79601832  0.01656509  0.48397664     0.07400
C605        C  0.81230193  0.02732805  0.49070435    -0.05700
H606        H  0.79976023  0.99316063  0.46801550     0.08100
H607        H  0.81029657  0.03858247  0.49859617     0.09300
Cu608      Cu  0.85284199  0.99393099  0.46535810     0.44200
Cu609      Cu  0.86261767  0.03252126  0.49062559     0.42000
Cu610      Cu  0.90679574  0.01504675  0.46893448     0.43900
N611        N  0.87847860  0.98470375  0.45377971    -0.34400
N612        N  0.89830970  0.99286762  0.45468632    -0.28600
C613        C  0.91057372  0.98475271  0.44507341    -0.04700
C614        C  0.89785195  0.97049990  0.43798599     0.07500
C615        C  0.87758417  0.97108633  0.44372392     0.01300
H616        H  0.92735214  0.98912666  0.44326413     0.09000
H617        H  0.86295356  0.96297615  0.44047763     0.08000
N618        N  0.91066322  0.03636108  0.48431401    -0.35800
N619        N  0.89487693  0.04255664  0.49215842    -0.28000
C620        C  0.90313978  0.05630418  0.50096787    -0.03200
C621        C  0.92513368  0.05907873  0.49850550     0.05400
C622        C  0.92931873  0.04599235  0.48796049     0.03500
H623        H  0.89383977  0.06338657  0.50873261     0.08600
H624        H  0.94483337  0.04370753  0.48322738     0.07400
N625        N  0.59700412  0.01723892  0.49087114    -0.27000
N626        N  0.60119655  0.00356698  0.50035856    -0.34800
C627        C  0.62273462  0.99994157  0.50089007     0.01400
C628        C  0.63270201  0.01175104  0.49124254     0.07400
C629        C  0.61587305  0.02258619  0.48507151    -0.05700
H630        H  0.63069123  0.99021101  0.50817507     0.08100
H631        H  0.61735959  0.03457529  0.47751909     0.09300
Cu632      Cu  0.57828687  0.99270966  0.51346110     0.44200
Cu633      Cu  0.56620184  0.03025760  0.48762935     0.42000
Cu634      Cu  0.52607535  0.01894835  0.51273338     0.43900
N635        N  0.55441260  0.98721198  0.52712194    -0.34400
N636        N  0.53540012  0.99730432  0.52710551    -0.28600
C637        C  0.52422240  0.99141703  0.53767060    -0.04700
C638        C  0.53686364  0.97695458  0.54465810     0.07500
C639        C  0.55579647  0.97452473  0.53761622     0.01300
H640        H  0.50813983  0.99729828  0.54010532     0.09000
H641        H  0.56984466  0.96479669  0.54015378     0.08000
N642        N  0.52051200  0.03938982  0.49711661    -0.35800
N643        N  0.53487492  0.04319864  0.48792828    -0.28000
C644        C  0.52624028  0.05739797  0.47950474    -0.03200
C645        C  0.50535801  0.06273226  0.48348284     0.05400
C646        C  0.50243847  0.05113623  0.49477962     0.03500
H647        H  0.53470439  0.06365781  0.47118026     0.08600
H648        H  0.48856054  0.05178381  0.50115188     0.07400
N649        N  0.34330319  0.22492620  0.40723967    -0.27000
N650        N  0.32743445  0.23839893  0.41053331    -0.34800
C651        C  0.31646979  0.24449961  0.39995750     0.01400
C652        C  0.32560619  0.23417909  0.38950892     0.07400
C653        C  0.34262716  0.22193891  0.39442817    -0.05700
H654        H  0.30193787  0.25446264  0.39999384     0.08100
H655        H  0.35313775  0.21098421  0.38916278     0.09300
Cu656      Cu  0.31799061  0.24464089  0.42921330     0.44200
Cu657      Cu  0.36378304  0.20948828  0.42042994     0.42000
Cu658      Cu  0.34679326  0.21552567  0.45352732     0.43900
N659        N  0.30705763  0.24230988  0.44792148    -0.34400
N660        N  0.31774124  0.23151376  0.45689670    -0.28600
C661        C  0.30536290  0.23039589  0.46750497    -0.04700
C662        C  0.28591535  0.24104673  0.46511393     0.07500
C663        C  0.28750325  0.24824752  0.45254866     0.01300
H664        H  0.30950266  0.22098869  0.47594278     0.09000
H665        H  0.27487970  0.25603860  0.44693793     0.08000
N666        N  0.37397282  0.19805645  0.44796164    -0.35800
N667        N  0.38034687  0.19559781  0.43592435    -0.28000
C668        C  0.39792765  0.18245137  0.43573962    -0.03200
C669        C  0.40295027  0.17658117  0.44828007     0.05400
C670        C  0.38719199  0.18660967  0.45570581     0.03500
H671        H  0.40623272  0.17725372  0.42710529     0.08600
H672        H  0.38484757  0.18497963  0.46595415     0.07400
N673        N  0.66243628  0.32989762  0.27853514    -0.27000
N674        N  0.65989183  0.35066040  0.28144438    -0.34800
C675        C  0.64792430  0.35233848  0.29213679     0.01400
C676        C  0.64255899  0.33167843  0.29631687     0.07400
C677        C  0.65186791  0.31777403  0.28733374    -0.05700
H678        H  0.64418033  0.36758430  0.29684180     0.08100
H679        H  0.65130805  0.30020892  0.28720632     0.09300
Cu680      Cu  0.67375077  0.37635838  0.27174427     0.44200
Cu681      Cu  0.68217294  0.31952640  0.26352865     0.42000
Cu682      Cu  0.71180930  0.36396909  0.24754003     0.43900
N683        N  0.69067399  0.40008333  0.26200646    -0.34400
N684        N  0.70525121  0.39544258  0.25312428    -0.28600
C685        C  0.71381230  0.41402947  0.24862736    -0.04700
C686        C  0.70421883  0.43123377  0.25509028     0.07500
C687        C  0.68941885  0.42176564  0.26340270     0.01300
H688        H  0.72608442  0.41494609  0.24119606     0.09000
H689        H  0.67822167  0.42993820  0.26980252     0.08000
N690        N  0.71524536  0.33143845  0.24320515    -0.35800
N691        N  0.70497828  0.31529369  0.24899640    -0.28000
C692        C  0.71245750  0.29633624  0.24428007    -0.03200
C693        C  0.72788950  0.30079510  0.23491373     0.05400
C694        C  0.72922650  0.32324208  0.23458714     0.03500
H695        H  0.70773368  0.28056114  0.24791085     0.08600
H696        H  0.73997392  0.33301078  0.22872285     0.07400
N697        N  0.87054389  0.12881147  0.15170882    -0.27000
N698        N  0.88161745  0.11131518  0.15523160    -0.34800
C699        C  0.88615605  0.09928755  0.14481242     0.01400
C700        C  0.87753069  0.10960605  0.13420894     0.07400
C701        C  0.86793039  0.12839278  0.13886227    -0.05700
H702        H  0.89452932  0.08379959  0.14500897     0.08100
H703        H  0.85882991  0.14030397  0.13340633     0.09300
Cu704      Cu  0.88825471  0.10238473  0.17393879     0.44200
Cu705      Cu  0.85723831  0.15106545  0.16461393     0.42000
Cu706      Cu  0.86247234  0.13394871  0.19783503     0.43900
N707        N  0.88820665  0.09363828  0.19306330    -0.34400
N708        N  0.87850809  0.10551187  0.20193128    -0.28600
C709        C  0.87890469  0.09482994  0.21315810    -0.04700
C710        C  0.88902400  0.07502481  0.21119623     0.07500
C711        C  0.89504229  0.07493515  0.19839090     0.01300
H712        H  0.87167431  0.10078229  0.22195257     0.09000
H713        H  0.90263282  0.06173462  0.19317075     0.08000
N714        N  0.84529804  0.16084345  0.19203604    -0.35800
N715        N  0.84349893  0.16767468  0.18005415    -0.28000
C716        C  0.83127855  0.18589024  0.17993839    -0.03200
C717        C  0.82490633  0.19043834  0.19245756     0.05400
C718        C  0.83423991  0.17422018  0.19980454     0.03500
H719        H  0.82768621  0.19522892  0.17139976     0.08600
H720        H  0.83300056  0.17214266  0.21009787     0.07400
N721        N  0.89939903  0.89009741  0.33120740    -0.27000
N722        N  0.90041311  0.91088772  0.32801534    -0.34800
C723        C  0.90060680  0.92311071  0.33866198     0.01400
C724        C  0.89951216  0.90952114  0.34916692     0.07400
C725        C  0.89908036  0.88861149  0.34413689    -0.05700
H726        H  0.90191895  0.94066043  0.33872314     0.08100
H727        H  0.89840704  0.87351758  0.34946303     0.09300
Cu728      Cu  0.90227549  0.92265554  0.30958915     0.44200
Cu729      Cu  0.89803265  0.86534596  0.31748541     0.42000
Cu730      Cu  0.90881342  0.88453814  0.28461431     0.43900
N731        N  0.90551089  0.93179490  0.29072195    -0.34400
N732        N  0.90866395  0.91764797  0.28138451    -0.28600
C733        C  0.90907832  0.92827773  0.27011596    -0.04700
C734        C  0.90564182  0.95018615  0.27251597     0.07500
C735        C  0.90376746  0.95182696  0.28571408     0.01300
H736        H  0.91131825  0.92050716  0.26089566     0.09000
H737        H  0.90054825  0.96638796  0.29123957     0.08000
N738        N  0.90023077  0.85307482  0.28933295    -0.35800
N739        N  0.89553973  0.84606479  0.30102559    -0.28000
C740        C  0.88753021  0.82570726  0.30012812    -0.03200
C741        C  0.88752415  0.81961493  0.28730270     0.05400
C742        C  0.89550615  0.83745299  0.28078096     0.03500
H743        H  0.88139043  0.81635650  0.30814668     0.08600
H744        H  0.89637420  0.83954010  0.27047534     0.07400
N745        N  0.75435348  0.61834501  0.23068208    -0.27000
N746        N  0.73860282  0.61636739  0.22211943    -0.34800
C747        C  0.72886197  0.59700720  0.22366338     0.01400
C748        C  0.73916094  0.58616157  0.23357626     0.07400
C749        C  0.75514770  0.60022320  0.23789415    -0.05700
H750        H  0.71566383  0.59100743  0.21775798     0.08100
H751        H  0.76649938  0.59754250  0.24568288     0.09300
Cu752      Cu  0.73215060  0.63928208  0.20814612     0.44200
Cu753      Cu  0.77400714  0.64551348  0.23188475     0.42000
Cu754      Cu  0.76769333  0.68601587  0.20652422     0.43900
N755        N  0.73058027  0.66238889  0.19379587    -0.34400
N756        N  0.74372513  0.67933968  0.19297834    -0.28600
C757        C  0.73862688  0.69076680  0.18236131    -0.04700
C758        C  0.72157248  0.68034433  0.17617147     0.07500
C759        C  0.71682490  0.66253541  0.18377437     0.01300
H760        H  0.74654013  0.70571068  0.17950657     0.09000
H761        H  0.70445394  0.65035639  0.18205060     0.08000
N762        N  0.78842547  0.68944885  0.22219187    -0.35800
N763        N  0.79044524  0.67481089  0.23141740    -0.28000
C764        C  0.80344384  0.68276187  0.24066893    -0.03200
C765        C  0.81023831  0.70334345  0.23708337     0.05400
C766        C  0.80024074  0.70707200  0.22533527     0.03500
H767        H  0.80656484  0.67460661  0.24968734     0.08600
H768        H  0.80084957  0.72184357  0.21969845     0.07400
C769        C  0.87748444  0.80020443  0.28139244    -0.11700
C770        C  0.88762022  0.78915247  0.27112600     0.03800
C771        C  0.87650012  0.77262332  0.26465940    -0.12200
C772        C  0.85528536  0.76687246  0.26821470     0.18700
C773        C  0.84553332  0.77708985  0.27886968    -0.09200
C774        C  0.85666958  0.79361492  0.28538604    -0.02200
H775        H  0.88426685  0.76450854  0.25663538     0.05200
C776        C  0.84350551  0.75062822  0.26040972     0.20700
H777        H  0.84871560  0.80186328  0.29329354     0.10400
C778        C  0.85018390  0.72883327  0.26070616    -0.15600
C779        C  0.83992562  0.71318399  0.25303818     0.03400
C780        C  0.82241424  0.71929651  0.24497688    -0.10900
C781        C  0.81615136  0.74127791  0.24451857    -0.00900
C782        C  0.82662943  0.75689825  0.25204865    -0.06100
H783        H  0.86366053  0.72404973  0.26680802     0.06400
H784        H  0.80292731  0.74639069  0.23832929     0.09800
Br785      Br  0.81701573  0.76913610  0.28473903    -0.05800
Br786      Br  0.91683626  0.79544399  0.26575323    -0.02700
Br787      Br  0.85191054  0.68432690  0.25327514     0.00100
Br788      Br  0.81796592  0.78673802  0.25016186    -0.04300
C789        C  0.90359575  0.96819300  0.26321741    -0.11700
C790        C  0.89208423  0.96598046  0.25152914     0.03800
C791        C  0.89040984  0.98371817  0.24320731    -0.12200
C792        C  0.89973996  0.00376006  0.24639130     0.18700
C793        C  0.91066382  0.00623379  0.25814846    -0.09200
C794        C  0.91261217  0.98848645  0.26643125    -0.02200
H795        H  0.88149496  0.98199325  0.23428031     0.05200
C796        C  0.89726257  0.02210163  0.23747570     0.20700
H797        H  0.92119864  0.99057742  0.27543739     0.10400
C798        C  0.87730590  0.03305098  0.23695954    -0.15600
C799        C  0.87419328  0.05033981  0.22846427     0.03400
C800        C  0.89144515  0.05699323  0.22039560    -0.10900
C801        C  0.91130085  0.04569064  0.22080045    -0.00900
C802        C  0.91428943  0.02831945  0.22925794    -0.06100
H803        H  0.86401227  0.02790867  0.24308604     0.06400
H804        H  0.92455353  0.05042233  0.21453386     0.09800
Br805      Br  0.92251238  0.03371062  0.26339844    -0.05800
Br806      Br  0.87648808  0.94012363  0.24681720    -0.02700
Br807      Br  0.84547041  0.06264733  0.22760954     0.00100
Br808      Br  0.94159360  0.01314511  0.22906603    -0.04300
C809        C  0.73403573  0.56411674  0.23820873    -0.11700
C810        C  0.75032466  0.54818371  0.23997264     0.03800
C811        C  0.74443350  0.52706656  0.24348657    -0.12200
C812        C  0.72252574  0.52150240  0.24519677     0.18700
C813        C  0.70629412  0.53740161  0.24367947    -0.09200
C814        C  0.71211753  0.55853126  0.24015837    -0.02200
H815        H  0.75692588  0.51471945  0.24448466     0.05200
C816        C  0.71691971  0.49866197  0.24770194     0.20700
H817        H  0.69945841  0.57060188  0.23879841     0.10400
C818        C  0.71370263  0.49169375  0.26035049    -0.15600
C819        C  0.70944710  0.46981644  0.26303320     0.03400
C820        C  0.70820925  0.45461193  0.25286970    -0.10900
C821        C  0.71138665  0.46178569  0.24020248    -0.00900
C822        C  0.71570208  0.48361391  0.23757578    -0.06100
H823        H  0.71498883  0.50325007  0.26817317     0.06400
H824        H  0.71043708  0.45038158  0.23228899     0.09800
Br825      Br  0.67602164  0.53068565  0.24581869    -0.05800
Br826      Br  0.78053054  0.55347924  0.23644842    -0.02700
Br827      Br  0.70752196  0.46165089  0.28078943     0.00100
Br828      Br  0.71989685  0.49224420  0.22003724    -0.04300
C829        C  0.74215340  0.28540610  0.22790691    -0.11700
C830        C  0.73505331  0.26461536  0.22391345     0.03800
C831        C  0.74963098  0.25052575  0.21782639    -0.12200
C832        C  0.77109664  0.25691732  0.21527849     0.18700
C833        C  0.77785574  0.27804597  0.21855615    -0.09200
C834        C  0.76355136  0.29191942  0.22499051    -0.02200
H835        H  0.74414299  0.23448998  0.21496250     0.00400
C836        C  0.78594298  0.24125471  0.20906696     0.20700
H837        H  0.76932026  0.30788529  0.22775218     0.10400
C838        C  0.78082846  0.23341279  0.19678592    -0.15600
C839        C  0.79334202  0.21708606  0.19102788     0.03400
C840        C  0.81176245  0.20873576  0.19750171    -0.10900
C841        C  0.81694628  0.21691017  0.20974469    -0.00900
C842        C  0.80403408  0.23268341  0.21563537    -0.06100
H843        H  0.76653886  0.23951484  0.19184674     0.06400
H844        H  0.83083129  0.21057816  0.21496268     0.09800
Br845      Br  0.80604891  0.28906360  0.21396650    -0.05800
Br846      Br  0.70544482  0.25495846  0.22536974    -0.02700
Br847      Br  0.78271489  0.20538572  0.17513394     0.00100
Br848      Br  0.81070800  0.24043210  0.23307667    -0.04300
C849        C  0.49053614  0.07907079  0.47758684    -0.11700
C850        C  0.46765344  0.07643291  0.47732439     0.03800
C851        C  0.45445461  0.09270845  0.47200700    -0.12200
C852        C  0.46357057  0.11159013  0.46673087     0.18700
C853        C  0.48632618  0.11404544  0.46667407    -0.09200
C854        C  0.49957831  0.09789091  0.47205288    -0.02200
H855        H  0.43694210  0.09058200  0.47191416     0.05200
C856        C  0.44901387  0.12866498  0.46152983     0.20700
H857        H  0.51705203  0.10023719  0.47205170     0.10400
C858        C  0.44581251  0.14781555  0.46858306    -0.15600
C859        C  0.43144114  0.16392426  0.46426151     0.03400
C860        C  0.41971516  0.16086841  0.45270634    -0.10900
C861        C  0.42353292  0.14195095  0.44545872    -0.00900
C862        C  0.43799156  0.12591299  0.44979317    -0.06100
H863        H  0.45453860  0.15021191  0.47751914     0.06400
H864        H  0.41485249  0.13935538  0.43653224     0.09800
Br865      Br  0.49996768  0.13899639  0.45910118    -0.05800
Br866      Br  0.45334948  0.05047241  0.48310856    -0.02700
Br867      Br  0.42970882  0.19019236  0.47419450     0.00100
Br868      Br  0.44240242  0.10059570  0.43934521    -0.04300
C869        C  0.90325058  0.95941775  0.42581216    -0.11700
C870        C  0.89729077  0.93756559  0.42364293     0.03800
C871        C  0.89923626  0.92860093  0.41136030    -0.12200
C872        C  0.90716992  0.94106218  0.40112343     0.18700
C873        C  0.91440196  0.96245902  0.40344071    -0.09200
C874        C  0.91252727  0.97143702  0.41575023    -0.02200
H875        H  0.89380092  0.91207704  0.40968352     0.05200
C876        C  0.90538470  0.93236140  0.38793338     0.20700
H877        H  0.91731275  0.98819309  0.41729934     0.10400
C878        C  0.88982552  0.94150137  0.37969872    -0.15600
C879        C  0.88711621  0.93370671  0.36721275     0.03400
C880        C  0.90019085  0.91640558  0.36273902    -0.10900
C881        C  0.91525798  0.90672804  0.37112791    -0.00900
C882        C  0.91796180  0.91461676  0.38365750    -0.06100
H883        H  0.87961951  0.95472016  0.38305622     0.06400
H884        H  0.92545611  0.89349608  0.36779366     0.09800
Br885      Br  0.92632555  0.98015399  0.38999309    -0.05800
Br886      Br  0.88662658  0.91915335  0.43712171    -0.02700
Br887      Br  0.86446038  0.94659509  0.35700645     0.00100
Br888      Br  0.93965276  0.90140499  0.39437367    -0.04300
C889        C  0.77206227  0.01766897  0.48560646    -0.11700
C890        C  0.76075604  0.03740396  0.48771585     0.03800
C891        C  0.73795764  0.03740244  0.48837932    -0.12200
C892        C  0.72614166  0.01803732  0.48699965     0.18700
C893        C  0.73736101  0.99837897  0.48504996    -0.09200
C894        C  0.76006226  0.99833244  0.48430792    -0.02200
H895        H  0.72936907  0.05259448  0.48988076     0.05200
C896        C  0.70214147  0.01837144  0.48793299     0.20700
H897        H  0.76840019  0.98301126  0.48278412     0.10400
C898        C  0.68949789  0.01573922  0.47680604    -0.15600
C899        C  0.66677139  0.01405396  0.47757183     0.03400
C900        C  0.65643695  0.01489514  0.48966585    -0.10900
C901        C  0.66917627  0.01800513  0.50072650    -0.00900
C902        C  0.69179689  0.01985922  0.49993151    -0.06100
H903        H  0.69740706  0.01442147  0.46753931     0.06400
H904        H  0.66150207  0.01885683  0.51007844     0.09800
Br905      Br  0.72234915  0.97110421  0.48370329    -0.05800
Br906      Br  0.77509917  0.06505799  0.48884494    -0.02700
Br907      Br  0.65100605  0.00879247  0.46196600     0.00100
Br908      Br  0.70801206  0.02341258  0.51554302    -0.04300
C909        C  0.17315821  0.22222379  0.51213942    -0.11700
C910        C  0.17807690  0.24362816  0.50820083     0.03800
C911        C  0.19621524  0.24745350  0.50039357    -0.12200
C912        C  0.20950099  0.23020451  0.49639331     0.18700
C913        C  0.20453375  0.20885252  0.50022845    -0.09200
C914        C  0.18640667  0.20499100  0.50798055    -0.02200
H915        H  0.19987555  0.26389413  0.49733354     0.05200
C916        C  0.22851066  0.23465282  0.48819990     0.20700
H917        H  0.18291900  0.18848991  0.51099447     0.10400
C918        C  0.24809820  0.24115103  0.49391768    -0.15600
C919        C  0.26686988  0.24398796  0.48650972     0.03400
C920        C  0.26611209  0.24032207  0.47313733    -0.10900
C921        C  0.24620446  0.23464732  0.46739209    -0.00900
C922        C  0.22750301  0.23171266  0.47482716    -0.06100
H923        H  0.24884128  0.24370402  0.50420583     0.06400
H924        H  0.24533268  0.23174532  0.45714295     0.09800
Br925      Br  0.22233219  0.18458034  0.49529643    -0.05800
Br926      Br  0.15990384  0.26798010  0.51247869    -0.02700
Br927      Br  0.29277121  0.25367007  0.49509364     0.00100
Br928      Br  0.20105092  0.22313843  0.46642937    -0.04300
C929        C  0.02649368  0.13140271  0.53628900    -0.11700
C930        C  0.01526124  0.11513101  0.54321174     0.03800
C931        C  0.99769696  0.10424199  0.53750178    -0.12200
C932        C  0.99105813  0.10921158  0.52494928     0.18700
C933        C  0.00183472  0.12578535  0.51816733    -0.09200
C934        C  0.01936811  0.13664948  0.52382433    -0.02200
H935        H  0.98954730  0.09137990  0.54273782     0.05200
C936        C  0.97382394  0.09606484  0.51876026     0.20700
H937        H  0.02759454  0.14918809  0.51836849     0.10400
C938        C  0.95315119  0.10511378  0.51669883    -0.15600
C939        C  0.93689208  0.09334956  0.51029064     0.03400
C940        C  0.94128309  0.07206801  0.50581356    -0.10900
C941        C  0.96200230  0.06308217  0.50798637    -0.00900
C942        C  0.97814124  0.07481475  0.51443671    -0.06100
H943        H  0.94980194  0.12155953  0.51988639     0.06400
H944        H  0.96569436  0.04680069  0.50464655     0.09800
Br945      Br  0.99386561  0.13343881  0.50092365    -0.05800
Br946      Br  0.02414138  0.10556357  0.55994966    -0.02700
Br947      Br  0.90982991  0.10801227  0.50708346     0.00100
Br948      Br  0.00611973  0.06143918  0.51672378    -0.04300
C949        C  0.40198679  0.89250878  0.01629774    -0.11700
C950        C  0.42141803  0.89664602  0.02314505     0.03800
C951        C  0.43744546  0.90998373  0.01774130    -0.12200
C952        C  0.43448601  0.91915018  0.00555481     0.18700
C953        C  0.41548305  0.91452118  0.99855535    -0.09200
C954        C  0.39941600  0.90135071  0.00394611    -0.02200
H955        H  0.45231561  0.91314088  0.02302358     0.05200
C956        C  0.45138228  0.93337335  0.00011294     0.20700
H957        H  0.38472734  0.89821388  0.99849104     0.10400
C958        C  0.46931667  0.92399364  0.99392911    -0.15600
C959        C  0.48443535  0.93698005  0.98746290     0.03400
C960        C  0.48161198  0.95978051  0.98716747    -0.10900
C961        C  0.46387929  0.96911823  0.99364361    -0.00900
C962        C  0.44889886  0.95610526  0.00017011    -0.06100
H963        H  0.47112384  0.90645874  0.99376293     0.06400
H964        H  0.46163897  0.98660325  0.99359491     0.09800
Br965      Br  0.41098075  0.92567626  0.98153678    -0.05800
Br966      Br  0.42782148  0.88332352  0.03938076    -0.02700
Br967      Br  0.50725357  0.92242372  0.97824118     0.00100
Br968      Br  0.42509601  0.96992039  0.00888468    -0.04300
C969        C  0.16690437  0.82511719  0.95102751    -0.11700
C970        C  0.17330185  0.84081970  0.96020248     0.03800
C971        C  0.19074374  0.83649126  0.96839225    -0.12200
C972        C  0.20280726  0.81724358  0.96725968     0.18700
C973        C  0.19708433  0.80194523  0.95779746    -0.09200
C974        C  0.17914250  0.80588211  0.94984457    -0.02200
H975        H  0.19534918  0.84853083  0.97549601     0.05200
C976        C  0.22156246  0.81394676  0.97591289     0.20700
H977        H  0.17472371  0.79381315  0.94272746     0.10400
C978        C  0.22100716  0.79721637  0.98507614    -0.15600
C979        C  0.23763904  0.79508279  0.99419877     0.03400
C980        C  0.25502308  0.81007843  0.99430855    -0.10900
C981        C  0.25579265  0.82635731  0.98484847    -0.00900
C982        C  0.23934411  0.82834295  0.97570329    -0.06100
H983        H  0.20742517  0.78598338  0.98524115     0.06400
H984        H  0.26897167  0.83804393  0.98473039     0.09800
Br985      Br  0.21385209  0.77603809  0.95498626    -0.05800
Br986      Br  0.16080509  0.86942721  0.96126426    -0.02700
Br987      Br  0.23619509  0.77092450  0.00583172     0.00100
Br988      Br  0.24199102  0.85099147  0.96309359    -0.04300
C989        C  0.87731668  0.10137770  0.12093018    -0.11700
C990        C  0.86847941  0.08084765  0.11792666     0.03800
C991        C  0.86909056  0.07326250  0.10528850    -0.12200
C992        C  0.87892855  0.08554561  0.09553564     0.18700
C993        C  0.88775851  0.10610768  0.09854800    -0.09200
C994        C  0.88665266  0.11395959  0.11115461    -0.02200
H995        H  0.86180280  0.05767247  0.10303952     0.05200
C996        C  0.87889344  0.07689045  0.08225285     0.20700
H997        H  0.89365153  0.12967788  0.11341026     0.10400
C998        C  0.86768247  0.08831104  0.07264804    -0.15600
C999        C  0.86591038  0.07992472  0.06021553     0.03400
C1000       C  0.87501704  0.05942463  0.05727776    -0.10900
C1001       C  0.88683773  0.04831248  0.06677364    -0.00900
C1002       C  0.88882660  0.05685733  0.07918081    -0.06100
H1003       H  0.86009694  0.10378048  0.07486748     0.06400
H1004       H  0.89411619  0.03266899  0.06463012     0.09800
Br1005     Br  0.90250259  0.12354358  0.08598983    -0.05800
Br1006     Br  0.85453385  0.06288434  0.13055805    -0.02700
Br1007     Br  0.85200231  0.09786733  0.04753463     0.00100
Br1008     Br  0.90549750  0.04068989  0.09152716    -0.04300
C1009       C  0.64697274  0.01693032  0.96849698    -0.11700
C1010       C  0.65555194  0.00816286  0.98001661     0.03800
C1011       C  0.67807962  0.00707568  0.98178955    -0.12200
C1012       C  0.69238090  0.01503990  0.97246231     0.18700
C1013       C  0.68400970  0.02393799  0.96105349    -0.09200
C1014       C  0.66148850  0.02475370  0.95912779    -0.02200
H1015       H  0.68451508  0.00062354  0.99070518     0.05200
C1016       C  0.71591252  0.01486731  0.97522273     0.20700
H1017       H  0.65532672  0.03151266  0.95023449     0.10400
C1018       C  0.72748128  0.99525401  0.97440804    -0.15600
C1019       C  0.74941011  0.99418962  0.97802854     0.03400
C1020       C  0.76005458  0.01308857  0.98249208    -0.10900
C1021       C  0.74836757  0.03268926  0.98325518    -0.00900
C1022       C  0.72646554  0.03367419  0.97971000    -0.06100
H1023       H  0.71923477  0.98060644  0.97127577     0.06400
H1024       H  0.75624529  0.04727922  0.98678332     0.09800
Br1025     Br  0.70274936  0.03525788  0.94793031    -0.05800
Br1026     Br  0.63791463  0.99944019  0.99433900    -0.02700
Br1027     Br  0.76311722  0.96611797  0.97792639     0.00100
Br1028     Br  0.71127438  0.06073506  0.98181677    -0.04300
C1029       C  0.01016574  0.90138429  0.93824408    -0.11700
C1030       C  0.00319420  0.92216556  0.93422272     0.03800
C1031       C  0.98761215  0.93350147  0.94142779    -0.12200
C1032       C  0.97902280  0.92467616  0.95278186     0.18700
C1033       C  0.98588322  0.90386524  0.95676208    -0.09200
C1034       C  0.00129335  0.89247217  0.94951829    -0.02200
H1035       H  0.98243029  0.94948749  0.93827805     0.05200
C1036       C  0.96274977  0.93727066  0.96023222     0.20700
H1037       H  0.00660688  0.87661800  0.95282277     0.10400
C1038       C  0.94164044  0.92894079  0.96160358    -0.15600
C1039       C  0.92574730  0.94031242  0.96848308     0.03400
C1040       C  0.93070371  0.96078593  0.97390771    -0.10900
C1041       C  0.95194464  0.96897107  0.97271140    -0.00900
C1042       C  0.96791468  0.95742679  0.96593849    -0.06100
H1043       H  0.93756059  0.91335532  0.95738076     0.06400
H1044       H  0.95607996  0.98454036  0.97693223     0.09800
Br1045     Br  0.97560135  0.89072056  0.97235299    -0.05800
Br1046     Br  0.01575542  0.93679508  0.91975285    -0.02700
Br1047     Br  0.89824488  0.92608158  0.97095279     0.00100
Br1048     Br  0.99665921  0.96956117  0.96508786    -0.04300
C1049       C  0.24796075  0.87033070  0.15587028    -0.11700
C1050       C  0.24361291  0.88211917  0.14452754     0.03800
C1051       C  0.25232149  0.87507105  0.13285221    -0.12200
C1052       C  0.26515318  0.85621766  0.13216452     0.18700
C1053       C  0.26936965  0.84432705  0.14345768    -0.09200
C1054       C  0.26067073  0.85136163  0.15516069    -0.02200
H1055       H  0.24896821  0.88430879  0.12420962     0.05200
C1056       C  0.27414423  0.84963954  0.11956545     0.20700
H1057       H  0.26412869  0.84212774  0.16378667     0.10400
C1058       C  0.29674015  0.84989799  0.11764902    -0.15600
C1059       C  0.30566509  0.84565328  0.10553819     0.03400
C1060       C  0.29178173  0.84177347  0.09494725    -0.10900
C1061       C  0.26920093  0.84067297  0.09705007    -0.00900
C1062       C  0.26037344  0.84439864  0.10921161    -0.06100
H1063       H  0.30749168  0.85358880  0.12560858     0.06400
H1064       H  0.25821600  0.83741318  0.08914653     0.09800
Br1065     Br  0.28646246  0.81818539  0.14337560    -0.05800
Br1066     Br  0.22475693  0.90703759  0.14412483    -0.02700
Br1067     Br  0.33682113  0.84401691  0.10441658     0.00100
Br1068     Br  0.22940829  0.84185661  0.11122152    -0.04300
C1069       C  0.16928349  0.83383911  0.24824179    -0.11700
C1070       C  0.17157874  0.81094222  0.24817499     0.03800
C1071       C  0.15651243  0.79800173  0.25471780    -0.12200
C1072       C  0.13920429  0.80738804  0.26149330     0.18700
C1073       C  0.13739102  0.83015503  0.26208580    -0.09200
C1074       C  0.15233720  0.84317989  0.25548367    -0.02200
H1075       H  0.15821503  0.78045744  0.25445961     0.05200
C1076       C  0.12304818  0.79294935  0.26759731     0.20700
H1077       H  0.15031495  0.86067391  0.25576238     0.10400
C1078       C  0.12851105  0.78209647  0.27898447    -0.15600
C1079       C  0.11454239  0.76649600  0.28427844     0.03400
C1080       C  0.09467690  0.76153586  0.27807974    -0.10900
C1081       C  0.08913207  0.77279682  0.26679201    -0.00900
C1082       C  0.10309435  0.78838395  0.26155064    -0.06100
H1083       H  0.14403941  0.78530498  0.28354886     0.06400
H1084       H  0.07400468  0.76917707  0.26188249     0.09800
Br1085     Br  0.11471932  0.84404887  0.27174111    -0.05800
Br1086     Br  0.19546564  0.79620615  0.24005231    -0.02700
Br1087     Br  0.12471805  0.75110079  0.29914693     0.00100
Br1088     Br  0.09482199  0.80216915  0.24574401    -0.04300
C1089       C  0.01350014  0.51603187  0.21457839    -0.11700
C1090       C  0.01590455  0.53717629  0.20940688     0.03800
C1091       C  0.01414983  0.55531226  0.21743818    -0.12200
C1092       C  0.01040422  0.55287962  0.23062430     0.18700
C1093       C  0.00750249  0.53192863  0.23576219    -0.09200
C1094       C  0.00907775  0.51373220  0.22774889    -0.02200
H1095       H  0.01659468  0.57142599  0.21347278     0.05200
C1096       C  0.01108855  0.57231360  0.23894191     0.20700
H1097       H  0.00728779  0.49765984  0.23188292     0.10400
C1098       C  0.99183571  0.58018168  0.24448782    -0.15600
C1099       C  0.99210415  0.59868485  0.25232548     0.03400
C1100       C  0.01189330  0.60965262  0.25462178    -0.10900
C1101       C  0.03107846  0.60187018  0.24892052    -0.00900
C1102       C  0.03083100  0.58328121  0.24121093    -0.06100
H1103       H  0.97655260  0.57196220  0.24264274     0.06400
H1104       H  0.04643398  0.60998869  0.25071203     0.09800
Br1105     Br  0.00277182  0.52733977  0.25376972    -0.05800
Br1106     Br  0.02412579  0.54267353  0.19191763    -0.02700
Br1107     Br  0.96485323  0.60895490  0.25899427     0.00100
Br1108     Br  0.05799153  0.57295517  0.23440815    -0.04300
C1109       C  0.26851296  0.23191861  0.31423120    -0.11700
C1110       C  0.25896404  0.24427814  0.32414470     0.03800
C1111       C  0.26917358  0.24547876  0.33616202    -0.12200
C1112       C  0.28905784  0.23482981  0.33840594     0.18700
C1113       C  0.29893343  0.22313678  0.32834113    -0.09200
C1114       C  0.28853303  0.22156238  0.31643959    -0.02200
H1115       H  0.26134276  0.25434840  0.34387757     0.05200
C1116       C  0.29866407  0.23499141  0.35145466     0.20700
H1117       H  0.29611264  0.21216355  0.30885357     0.10400
C1118       C  0.29994550  0.21539068  0.35833165    -0.15600
C1119       C  0.30893005  0.21477144  0.37066856     0.03400
C1120       C  0.31678429  0.23403514  0.37634102    -0.10900
C1121       C  0.31510811  0.25371904  0.36958904    -0.00900
C1122       C  0.30624691  0.25430423  0.35719739    -0.06100
H1123       H  0.29372825  0.20052855  0.35410734     0.06400
H1124       H  0.32088728  0.26865342  0.37393676     0.09800
Br1125     Br  0.32681425  0.20940881  0.33031716    -0.05800
Br1126     Br  0.23128796  0.25835940  0.32211586    -0.02700
Br1127     Br  0.30863640  0.18753729  0.37968126     0.00100
Br1128     Br  0.30546400  0.28166119  0.34834513    -0.04300
C1129       C  0.21965363  0.00069916  0.22570619    -0.11700
C1130       C  0.20315352  0.01082524  0.23303705     0.03800
C1131       C  0.20426725  0.03315936  0.23554641    -0.12200
C1132       C  0.22129435  0.04585122  0.23063074     0.18700
C1133       C  0.23742900  0.03590553  0.22303440    -0.09200
C1134       C  0.23652130  0.01354665  0.22065879    -0.02200
H1135       H  0.19167725  0.04073301  0.24130707     0.05200
C1136       C  0.22227672  0.06925754  0.23389405     0.20700
H1137       H  0.24919393  0.00614594  0.21488917     0.10400
C1138       C  0.23949269  0.07684557  0.24150155    -0.15600
C1139       C  0.24070285  0.09868181  0.24517531     0.03400
C1140       C  0.22407649  0.11333819  0.24148464    -0.10900
C1141       C  0.20709409  0.10577302  0.23361640    -0.00900
C1142       C  0.20610923  0.08396216  0.22980376    -0.06100
H1143       H  0.25215194  0.06568816  0.24454893     0.06400
H1144       H  0.19433976  0.11679508  0.23055219     0.09800
Br1145     Br  0.26061949  0.05225609  0.21534469    -0.05800
Br1146     Br  0.17777210  0.99569971  0.23900199    -0.02700
Br1147     Br  0.26638196  0.10749974  0.25432214     0.00100
Br1148     Br  0.18273850  0.07514749  0.21873095    -0.04300
C1149       C  0.10629261  0.36428501  0.20093218    -0.11700
C1150       C  0.12424619  0.35599147  0.19392727     0.03800
C1151       C  0.13757680  0.33995640  0.19935612    -0.12200
C1152       C  0.13371863  0.33210531  0.21176721     0.18700
C1153       C  0.11625676  0.34066335  0.21890764    -0.09200
C1154       C  0.10266391  0.35645878  0.21345322    -0.02200
H1155       H  0.15134314  0.33382868  0.19394229     0.05200
C1156       C  0.14879151  0.31578031  0.21727367     0.20700
H1157       H  0.08921583  0.36269477  0.21908298     0.10400
C1158       C  0.17005328  0.32208330  0.22048074    -0.15600
C1159       C  0.18480459  0.30715237  0.22573909     0.03400
C1160       C  0.17830796  0.28543500  0.22788173    -0.10900
C1161       C  0.15720316  0.27903190  0.22428652    -0.00900
C1162       C  0.14249714  0.29396994  0.21902008    -0.06100
H1163       H  0.17518998  0.33871859  0.21886642     0.06400
H1164       H  0.15197297  0.26239637  0.22576782     0.09800
Br1165     Br  0.11099050  0.33201503  0.23634092    -0.05800
Br1166     Br  0.13309816  0.36703851  0.17749719    -0.02700
Br1167     Br  0.21392203  0.31703055  0.22898909     0.00100
Br1168     Br  0.11418364  0.28374777  0.21410504    -0.04300
C1169       C  0.02413831  0.59912420  0.41138141    -0.11700
C1170       C  0.01741115  0.58930402  0.39981005     0.03800
C1171       C  0.01457551  0.60206382  0.38879309    -0.12200
C1172       C  0.01827373  0.62457604  0.38913656     0.18700
C1173       C  0.02372416  0.63454564  0.40087370    -0.09200
C1174       C  0.02691840  0.62177386  0.41183152    -0.02200
H1175       H  0.01036027  0.59427688  0.37979352     0.05200
C1176       C  0.01812030  0.63697179  0.37696469     0.20700
H1177       H  0.03186656  0.62951798  0.42071349     0.10400
C1178       C  0.99836374  0.64083049  0.37060986    -0.15600
C1179       C  0.99798800  0.65124527  0.35864338     0.03400
C1180       C  0.01766280  0.65788589  0.35284066    -0.10900
C1181       C  0.03734648  0.65450844  0.35939332    -0.00900
C1182       C  0.03772323  0.64394799  0.37128308    -0.06100
H1183       H  0.98321537  0.63558690  0.37493997     0.06400
H1184       H  0.05260488  0.65924969  0.35499724     0.09800
Br1185     Br  0.02717824  0.66547088  0.40230377    -0.05800
Br1186     Br  0.01399959  0.55840398  0.39819548    -0.02700
Br1187     Br  0.97014919  0.65670313  0.35089918     0.00100
Br1188     Br  0.06552939  0.63804754  0.37897012    -0.04300
C1189       C  0.98660792  0.48203892  0.48919290    -0.11700
C1190       C  0.97716008  0.46433651  0.48265427     0.03800
C1191       C  0.96219193  0.45093459  0.48896290    -0.12200
C1192       C  0.95591274  0.45511411  0.50169825     0.18700
C1193       C  0.96575761  0.47258636  0.50832581    -0.09200
C1194       C  0.98111663  0.48570430  0.50208830    -0.02200
H1195       H  0.95531364  0.43718983  0.48386986     0.05200
C1196       C  0.93933698  0.44089173  0.50785867     0.20700
H1197       H  0.98831683  0.49925049  0.50721422     0.10400
C1198       C  0.94474775  0.42933989  0.51905670    -0.15600
C1199       C  0.92965410  0.41557349  0.52500863     0.03400
C1200       C  0.90882552  0.41270470  0.51957236    -0.10900
C1201       C  0.90352257  0.42391937  0.50825387    -0.00900
C1202       C  0.91841408  0.43809365  0.50247543    -0.06100
H1203       H  0.96090710  0.43087806  0.52313001     0.06400
H1204       H  0.88753986  0.42193926  0.50400155     0.09800
Br1205     Br  0.95800701  0.48006454  0.52563293    -0.05800
Br1206     Br  0.98487921  0.45709052  0.46531571    -0.02700
Br1207     Br  0.93891593  0.40004304  0.54003396     0.00100
Br1208     Br  0.90893042  0.45386054  0.48755848    -0.04300
C1209       C  0.26362659  0.53144035  0.49409608    -0.11700
C1210       C  0.24615021  0.52768041  0.50260963     0.03800
C1211       C  0.22473751  0.52950498  0.49822050    -0.12200
C1212       C  0.22025278  0.53470305  0.48538357     0.18700
C1213       C  0.23764058  0.53809669  0.47680704    -0.09200
C1214       C  0.25912136  0.53635458  0.48118909    -0.02200
H1215       H  0.21144375  0.52677343  0.50486538     0.05200
C1216       C  0.19728764  0.53707511  0.48135117     0.20700
H1217       H  0.27236161  0.53914802  0.47452085     0.10400
C1218       C  0.18947028  0.55770042  0.47790987    -0.15600
C1219       C  0.16742458  0.56097903  0.47512281     0.03400
C1220       C  0.15271900  0.54336021  0.47586434    -0.10900
C1221       C  0.16066082  0.52268943  0.47921043    -0.00900
C1222       C  0.18272828  0.51942164  0.48186604    -0.06100
H1223       H  0.20050340  0.57144339  0.47772363     0.06400
H1224       H  0.14967991  0.50892797  0.47964796     0.09800
Br1225     Br  0.23286234  0.54464141  0.45901032    -0.05800
Br1226     Br  0.25025432  0.51847691  0.52006438    -0.02700
Br1227     Br  0.15833697  0.59020914  0.47144878     0.00100
Br1228     Br  0.19229359  0.49047013  0.48587205    -0.04300
C1229       C  0.59906232  0.33232796  0.37359644    -0.11700
C1230       C  0.61909975  0.33938026  0.36836322     0.03800
C1231       C  0.62347458  0.33619679  0.35535615    -0.12200
C1232       C  0.60807154  0.32658931  0.34725584     0.18700
C1233       C  0.58784835  0.32009211  0.35228202    -0.09200
C1234       C  0.58347248  0.32295283  0.36539543    -0.02200
H1235       H  0.63880687  0.34183177  0.35142746     0.05200
C1236       C  0.61329783  0.32499441  0.33346637     0.20700
H1237       H  0.56798111  0.31759403  0.36921998     0.10400
C1238       C  0.62806790  0.30910533  0.32928477    -0.15600
C1239       C  0.63693198  0.30987844  0.31689182     0.03400
C1240       C  0.63083632  0.32687482  0.30844577    -0.10900
C1241       C  0.61494687  0.34188248  0.31249033    -0.00900
C1242       C  0.60643727  0.34123830  0.32489864    -0.06100
H1243       H  0.63366184  0.29677241  0.33595293     0.06400
H1244       H  0.60991386  0.35496460  0.30618019     0.09800
Br1245     Br  0.56595431  0.30728969  0.34155150    -0.05800
Br1246     Br  0.64044018  0.35538560  0.37799931    -0.02700
Br1247     Br  0.65904641  0.28883059  0.31296611     0.00100
Br1248     Br  0.58728209  0.36425700  0.33015172    -0.04300
C1249       C  0.66907129  0.33418130  0.46882918    -0.11700
C1250       C  0.67336905  0.34567090  0.48032678     0.03800
C1251       C  0.69260162  0.34154784  0.48711202    -0.12200
C1252       C  0.70778504  0.32637488  0.48256791     0.18700
C1253       C  0.70366457  0.31506494  0.47113467    -0.09200
C1254       C  0.68442694  0.31893365  0.46440599    -0.02200
H1255       H  0.69599430  0.35056161  0.49583108     0.05200
C1256       C  0.72830742  0.32325794  0.48958883     0.20700
H1257       H  0.68150209  0.30988478  0.45565196     0.10400
C1258       C  0.73041003  0.30574274  0.49810264    -0.15600
C1259       C  0.74945127  0.30298581  0.50530199     0.03400
C1260       C  0.76663981  0.31807532  0.50405607    -0.10900
C1261       C  0.76471334  0.33505308  0.49507864    -0.00900
C1262       C  0.74574099  0.33771770  0.48789014    -0.06100
H1263       H  0.71713195  0.29430044  0.49920542     0.06400
H1264       H  0.77763712  0.34687149  0.49397617     0.09800
Br1265     Br  0.72420133  0.29472511  0.46416530    -0.05800
Br1266     Br  0.65493269  0.36841129  0.48678777    -0.02700
Br1267     Br  0.75131417  0.27798245  0.51628263     0.00100
Br1268     Br  0.74415459  0.36152693  0.47600612    -0.04300
C1269       C  0.50196697  0.38832807  0.45775777    -0.11700
C1270       C  0.49335968  0.38497805  0.47019746     0.03800
C1271       C  0.47882399  0.40012715  0.47542828    -0.12200
C1272       C  0.47242815  0.41853441  0.46842541     0.18700
C1273       C  0.48050407  0.42155911  0.45590637    -0.09200
C1274       C  0.49507220  0.40652199  0.45068362    -0.02200
H1275       H  0.47253126  0.39759473  0.48503194     0.05200
C1276       C  0.45777494  0.43473598  0.47438151     0.20700
H1277       H  0.50148685  0.40944705  0.44115430     0.10400
C1278       C  0.46573850  0.45567588  0.47693466    -0.15600
C1279       C  0.45216057  0.47180427  0.48198632     0.03400
C1280       C  0.43018337  0.46698902  0.48468310    -0.10900
C1281       C  0.42229558  0.44595463  0.48223823    -0.00900
C1282       C  0.43591692  0.42982562  0.47721690    -0.06100
H1283       H  0.48253602  0.45958395  0.47475457     0.06400
H1284       H  0.40548802  0.44198545  0.48433991     0.09800
Br1285     Br  0.47201632  0.44590940  0.44550282    -0.05800
Br1286     Br  0.49982597  0.35964782  0.48030044    -0.02700
Br1287     Br  0.46415792  0.50042232  0.48402026     0.00100
Br1288     Br  0.42374492  0.40158945  0.47405364    -0.04300
C1289       C  0.13405777  0.21106493  0.60903510    -0.11700
C1290       C  0.12369394  0.20992745  0.62110127     0.03800
C1291       C  0.13622695  0.20864020  0.63233224    -0.12200
C1292       C  0.15907911  0.20891369  0.63179554     0.18700
C1293       C  0.16939466  0.21074586  0.61976508    -0.09200
C1294       C  0.15691479  0.21174411  0.60856829    -0.02200
H1295       H  0.12810741  0.20733547  0.64153350     0.05200
C1296       C  0.17192688  0.20618570  0.64374955     0.20700
H1297       H  0.16522276  0.21268050  0.59941388     0.10400
C1298       C  0.18547087  0.18792452  0.64496427    -0.15600
C1299       C  0.19805224  0.18468409  0.65597513     0.03400
C1300       C  0.19672065  0.19956504  0.66627081    -0.10900
C1301       C  0.18339744  0.21801703  0.66501164    -0.00900
C1302       C  0.17102355  0.22140416  0.65387018    -0.06100
H1303       H  0.18647066  0.17623180  0.63719680     0.06400
H1304       H  0.18239731  0.22969198  0.67278505     0.09800
Br1305     Br  0.20048775  0.21239538  0.61806851    -0.05800
Br1306     Br  0.09264323  0.21140728  0.62288496    -0.02700
Br1307     Br  0.21802676  0.16062229  0.65586024     0.00100
Br1308     Br  0.15370589  0.24733049  0.65276800    -0.04300
C1309       C  0.38184317  0.33007604  0.77061773    -0.11700
C1310       C  0.37289884  0.33284760  0.75819186     0.03800
C1311       C  0.35937955  0.31679849  0.75301764    -0.12200
C1312       C  0.35404262  0.29815112  0.76006611     0.18700
C1313       C  0.36239876  0.29559757  0.77255489    -0.09200
C1314       C  0.37619895  0.31143964  0.77769996    -0.02200
H1315       H  0.35283882  0.31893065  0.74343058     0.05200
C1316       C  0.34042660  0.28124143  0.75397405     0.20700
H1317       H  0.38266151  0.30906382  0.78727823     0.10400
C1318       C  0.34989329  0.26116834  0.75088451    -0.15600
C1319       C  0.33802051  0.24517191  0.74440783     0.03400
C1320       C  0.31614069  0.24918224  0.74091502    -0.10900
C1321       C  0.30674079  0.26936080  0.74398462    -0.00900
C1322       C  0.31865095  0.28530403  0.75049050    -0.06100
H1323       H  0.36679666  0.25812966  0.75328326     0.06400
H1324       H  0.28993691  0.27264929  0.74147720     0.09800
Br1325     Br  0.35488360  0.27111891  0.78308485    -0.05800
Br1326     Br  0.37673177  0.35866320  0.74806788    -0.02700
Br1327     Br  0.35332350  0.21910068  0.73973288     0.00100
Br1328     Br  0.30431597  0.31211162  0.75471957    -0.04300
C1329       C  0.17270663  0.83683643  0.79914553    -0.11700
C1330       C  0.15031991  0.84107248  0.79745446     0.03800
C1331       C  0.13603343  0.83934738  0.80790018    -0.12200
C1332       C  0.14380715  0.83367333  0.82012775     0.18700
C1333       C  0.16607392  0.82868978  0.82168306    -0.09200
C1334       C  0.18025566  0.83010964  0.81121176    -0.02200
H1335       H  0.11890423  0.84290442  0.80655483     0.05200
C1336       C  0.12886104  0.83372975  0.83130668     0.20700
H1337       H  0.19746647  0.82710372  0.81267149     0.10400
C1338       C  0.12394763  0.81402768  0.83742375    -0.15600
C1339       C  0.11263942  0.81375649  0.84908569     0.03400
C1340       C  0.10595536  0.83347735  0.85482472    -0.10900
C1341       C  0.10945099  0.85306352  0.84820742    -0.00900
C1342       C  0.12089051  0.85332323  0.83656005    -0.06100
H1343       H  0.12962641  0.79884339  0.83332868     0.06400
H1344       H  0.10448311  0.86834527  0.85248639     0.09800
Br1345     Br  0.17826705  0.82164825  0.83814184    -0.05800
Br1346     Br  0.13854913  0.84905359  0.78104652    -0.02700
Br1347     Br  0.10675639  0.78596681  0.85673257     0.00100
Br1348     Br  0.12690316  0.88097486  0.82879430    -0.04300
C1349       C  0.25800052  0.96907342  0.75195557    -0.11700
C1350       C  0.23931184  0.98058673  0.74782636     0.03800
C1351       C  0.24096409  0.00255350  0.74458561    -0.12200
C1352       C  0.26098261  0.01334384  0.74511113     0.18700
C1353       C  0.27971205  0.00195422  0.74898697    -0.09200
C1354       C  0.27812527  0.97997386  0.75237241    -0.02200
H1355       H  0.22658073  0.01123312  0.74138808     0.05200
C1356       C  0.26177476  0.03642865  0.74134489     0.20700
H1357       H  0.29267024  0.97140386  0.75539277     0.10400
C1358       C  0.26213647  0.05246336  0.75090355    -0.15600
C1359       C  0.26072391  0.07451468  0.74768137     0.03400
C1360       C  0.25909085  0.08072715  0.73466135    -0.10900
C1361       C  0.25884112  0.06458234  0.72512479    -0.00900
C1362       C  0.26018897  0.04258041  0.72837426    -0.06100
H1363       H  0.26282578  0.04774985  0.76092301     0.06400
H1364       H  0.25765498  0.06909930  0.71509140     0.09800
Br1365     Br  0.30775386  0.01564518  0.74941213    -0.05800
Br1366     Br  0.21143761  0.96720173  0.74515684    -0.02700
Br1367     Br  0.25893793  0.09508950  0.76151099     0.00100
Br1368     Br  0.25976317  0.02142944  0.71482247    -0.04300
C1369       C  0.38827934  0.57385903  0.56512878    -0.11700
C1370       C  0.40602442  0.58821033  0.56655652     0.03800
C1371       C  0.41065071  0.59711936  0.57861217    -0.12200
C1372       C  0.39800203  0.59176793  0.58936684     0.18700
C1373       C  0.38023210  0.57751267  0.58792746    -0.09200
C1374       C  0.37541308  0.56884526  0.57585736    -0.02200
H1375       H  0.42415757  0.60832110  0.57961479     0.05200
C1376       C  0.40356220  0.60117625  0.60200505     0.20700
H1377       H  0.36180531  0.55775520  0.57490101     0.10400
C1378       C  0.38885764  0.61538359  0.60798744    -0.15600
C1379       C  0.39304497  0.62368344  0.62025198     0.03400
C1380       C  0.41265690  0.61822550  0.62660104    -0.10900
C1381       C  0.42748632  0.60424981  0.62044813    -0.00900
C1382       C  0.42305328  0.59565846  0.60830945    -0.06100
H1383       H  0.37372082  0.61952278  0.60322223     0.06400
H1384       H  0.44256174  0.59975919  0.62515919     0.09800
Br1385     Br  0.36268545  0.56858959  0.60223762    -0.05800
Br1386     Br  0.42364964  0.59729964  0.55232398    -0.02700
Br1387     Br  0.37023566  0.64034339  0.62813971     0.00100
Br1388     Br  0.44353290  0.57547705  0.60107891    -0.04300
C1389       C  0.46759356  0.57525983  0.72215461    -0.11700
C1390       C  0.45625507  0.57340551  0.73391958     0.03800
C1391       C  0.45858303  0.55458920  0.74132310    -0.12200
C1392       C  0.47179915  0.53742442  0.73716283     0.18700
C1393       C  0.48334182  0.53930071  0.72558948    -0.09200
C1394       C  0.48126054  0.55816015  0.71821465    -0.02200
H1395       H  0.44933402  0.55293269  0.75013007     0.05200
C1396       C  0.47159555  0.51693944  0.74443789     0.20700
H1397       H  0.48992728  0.55923357  0.70917620     0.10400
C1398       C  0.45498118  0.50195345  0.74198068    -0.15600
C1399       C  0.45318768  0.48291450  0.74920430     0.03400
C1400       C  0.46847771  0.47855865  0.75903100    -0.10900
C1401       C  0.48519005  0.49363942  0.76141148    -0.00900
C1402       C  0.48683306  0.51273855  0.75418254    -0.06100
H1403       H  0.44297882  0.50541902  0.73462341     0.06400
H1404       H  0.49689168  0.49063766  0.76899856     0.09800
Br1405     Br  0.50117542  0.51605115  0.71922785    -0.05800
Br1406     Br  0.43535821  0.59442580  0.73977743    -0.02700
Br1407     Br  0.42814716  0.46502838  0.74597747     0.00100
Br1408     Br  0.50967576  0.53293863  0.75807930    -0.04300
C1409       C  0.39186060  0.73076460  0.70771094    -0.11700
C1410       C  0.39994901  0.74483916  0.71731332     0.03800
C1411       C  0.38579247  0.75918111  0.72359422    -0.12200
C1412       C  0.36364118  0.75990212  0.72038719     0.18700
C1413       C  0.35567843  0.74639369  0.71055517    -0.09200
C1414       C  0.36974742  0.73198658  0.70431351    -0.02200
H1415       H  0.39208739  0.76990741  0.73097072     0.05200
C1416       C  0.34906393  0.77500183  0.72728294     0.20700
H1417       H  0.36321277  0.72129756  0.69699623     0.10400
C1418       C  0.34235563  0.79416325  0.72119598    -0.15600
C1419       C  0.32800918  0.80855001  0.72725106     0.03400
C1420       C  0.32033393  0.80393831  0.73977670    -0.10900
C1421       C  0.32701491  0.78458793  0.74579354    -0.00900
C1422       C  0.34128497  0.77018669  0.73965858    -0.06100
H1423       H  0.34801059  0.79771851  0.71156425     0.06400
H1424       H  0.32120311  0.78068942  0.75534215     0.09800
Br1425     Br  0.32556242  0.74659251  0.70564588    -0.05800
Br1426     Br  0.43027341  0.74624768  0.72169770    -0.02700
Br1427     Br  0.31818487  0.83297687  0.71731301     0.00100
Br1428     Br  0.34925044  0.74381939  0.74832707    -0.04300
C1429       C  0.42617531  0.46918845  0.91757083    -0.11700
C1430       C  0.43611753  0.47997677  0.90717212     0.03800
C1431       C  0.43947578  0.46889199  0.89561783    -0.12200
C1432       C  0.43323178  0.44707910  0.89427557     0.18700
C1433       C  0.42462114  0.43590227  0.90491661    -0.09200
C1434       C  0.42081244  0.44709223  0.91639992    -0.02200
H1435       H  0.44622258  0.47755619  0.88747971     0.05200
C1436       C  0.43450553  0.43692320  0.88144596     0.20700
H1437       H  0.41345315  0.43858677  0.92440849     0.10400
C1438       C  0.45495279  0.43281074  0.87598871    -0.15600
C1439       C  0.45670038  0.42533922  0.86334099     0.03400
C1440       C  0.43774738  0.42176794  0.85599355    -0.10900
C1441       C  0.41728217  0.42521660  0.86159797    -0.00900
C1442       C  0.41554792  0.43307647  0.87415795    -0.06100
H1443       H  0.46959663  0.43582450  0.88151450     0.06400
H1444       H  0.40262979  0.42287403  0.85596603     0.09800
Br1445     Br  0.41788891  0.40545880  0.90415027    -0.05800
Br1446     Br  0.44358087  0.51026928  0.90778710    -0.02700
Br1447     Br  0.48529488  0.41993285  0.85663117     0.00100
Br1448     Br  0.38707903  0.44020129  0.88051319    -0.04300
C1449       C  0.71019890  0.68658356  0.16419449    -0.11700
C1450       C  0.72149218  0.69344226  0.15309427     0.03800
C1451       C  0.70999240  0.69748108  0.14173800    -0.12200
C1452       C  0.68739185  0.69457931  0.14117403     0.18700
C1453       C  0.67604362  0.68818735  0.15225194    -0.09200
C1454       C  0.68744369  0.68426659  0.16363909    -0.02200
H1455       H  0.71882967  0.70198239  0.13313529     0.05200
C1456       C  0.67640347  0.69588762  0.12861332     0.20700
H1457       H  0.67849909  0.67908212  0.17206327     0.10400
C1458       C  0.67231936  0.67654379  0.12192099    -0.15600
C1459       C  0.66345046  0.67693712  0.10956142     0.03400
C1460       C  0.65823246  0.69704041  0.10377952    -0.10900
C1461       C  0.66218866  0.71640215  0.11057773    -0.00900
C1462       C  0.67123889  0.71594724  0.12290348    -0.06100
H1463       H  0.67672357  0.66107960  0.12619672     0.06400
H1464       H  0.65838171  0.73196609  0.10623667     0.09800
Br1465     Br  0.64507037  0.68419659  0.15212888    -0.05800
Br1466     Br  0.75265908  0.69513668  0.15227273    -0.02700
Br1467     Br  0.66118525  0.64968799  0.10066331     0.00100
Br1468     Br  0.67646372  0.74299443  0.13154741    -0.04300
C1469       C  0.54835156  0.64706909  0.02422579    -0.11700
C1470       C  0.53011819  0.64012701  0.03144354     0.03800
C1471       C  0.51407622  0.62726343  0.02563812    -0.12200
C1472       C  0.51565137  0.62139410  0.01267833     0.18700
C1473       C  0.53359350  0.62843027  0.00543138    -0.09200
C1474       C  0.54975765  0.64107461  0.01121134    -0.02200
H1475       H  0.50004714  0.62218436  0.03118147     0.05200
C1476       C  0.49805790  0.60858394  0.00670184     0.20700
H1477       H  0.56355792  0.64614747  0.00548015     0.10400
C1478       C  0.48171838  0.61942661  0.99981016    -0.15600
C1479       C  0.46528452  0.60776396  0.99355672     0.03400
C1480       C  0.46507608  0.58486030  0.99419077    -0.10900
C1481       C  0.48147825  0.57404267  0.00108873    -0.00900
C1482       C  0.49782979  0.58573911  0.00739771    -0.06100
H1483       H  0.48201202  0.63701012  0.99910181     0.06400
H1484       H  0.48154949  0.55643511  0.00157138     0.09800
Br1485     Br  0.53659109  0.62113925  0.98759923    -0.05800
Br1486     Br  0.52491604  0.64912483  0.04882474    -0.02700
Br1487     Br  0.44467290  0.62379235  0.98343480     0.00100
Br1488     Br  0.51981024  0.56994895  0.01659706    -0.04300
C1489       C  0.78577743  0.75572152  0.96573673    -0.11700
C1490       C  0.76900277  0.77145485  0.96559767     0.03800
C1491       C  0.75087744  0.76894082  0.97362025    -0.12200
C1492       C  0.74938759  0.75125474  0.98209707     0.18700
C1493       C  0.76651079  0.73600597  0.98256252    -0.09200
C1494       C  0.78436653  0.73827577  0.97440090    -0.02200
H1495       H  0.73789025  0.78086439  0.97326302     0.05200
C1496       C  0.72973230  0.74851553  0.99016126     0.20700
H1497       H  0.79704747  0.72603715  0.97470660     0.10400
C1498       C  0.71724273  0.72956905  0.98875288    -0.15600
C1499       C  0.69971776  0.72529179  0.99690078     0.03400
C1500       C  0.69375369  0.74067440  0.00632541    -0.10900
C1501       C  0.70595218  0.75985757  0.00756521    -0.00900
C1502       C  0.72385013  0.76386182  0.99960351    -0.06100
H1503       H  0.72173501  0.71759330  0.98158798     0.06400
H1504       H  0.70171931  0.77164183  0.01489213     0.09800
Br1505     Br  0.76667089  0.71199875  0.99437504    -0.05800
Br1506     Br  0.77050675  0.79737259  0.95536391    -0.02700
Br1507     Br  0.68653115  0.69704664  0.99566708     0.00100
Br1508     Br  0.74043060  0.78983204  0.00256109    -0.04300
C1509       C  0.04893541  0.50311256  0.05696909    -0.11700
C1510       C  0.05354278  0.48091232  0.05913433     0.03800
C1511       C  0.05025490  0.47185616  0.07129818    -0.12200
C1512       C  0.04228804  0.48455250  0.08142296     0.18700
C1513       C  0.03684393  0.50649150  0.07917951    -0.09200
C1514       C  0.04001802  0.51557425  0.06697444    -0.02200
H1515       H  0.05427221  0.45491317  0.07293248     0.05200
C1516       C  0.04124791  0.47503973  0.09443889     0.20700
H1517       H  0.03649665  0.53265752  0.06546966     0.10400
C1518       C  0.06045669  0.47349760  0.10166627    -0.15600
C1519       C  0.06012287  0.46536473  0.11421474     0.03400
C1520       C  0.04026269  0.45860211  0.11969800    -0.10900
C1521       C  0.02109434  0.45990132  0.11238826    -0.00900
C1522       C  0.02150596  0.46782699  0.09978738    -0.06100
H1523       H  0.07570136  0.47908173  0.09760662     0.06400
H1524       H  0.00575366  0.45472089  0.11650574     0.09800
Br1525     Br  0.02638293  0.52489267  0.09272795    -0.05800
Br1526     Br  0.06384449  0.46205725  0.04575285    -0.02700
Br1527     Br  0.08690067  0.46553765  0.12372431     0.00100
Br1528     Br  0.99486226  0.46839913  0.09019062    -0.04300
C1529       C  0.18128872  0.54390152  0.99148669    -0.11700
C1530       C  0.19740644  0.54745748  0.00093933     0.03800
C1531       C  0.21945578  0.54610480  0.99765126    -0.12200
C1532       C  0.22583203  0.54133729  0.98504137     0.18700
C1533       C  0.20982564  0.53808264  0.97556790    -0.09200
C1534       C  0.18775931  0.53951634  0.97881135    -0.02200
H1535       H  0.23172255  0.54887516  0.00495294     0.05200
C1536       C  0.24926970  0.53961015  0.98200459     0.20700
H1537       H  0.17559720  0.53688167  0.97143414     0.10400
C1538       C  0.25864952  0.51897270  0.98057190    -0.15600
C1539       C  0.28088541  0.51666380  0.97796532     0.03400
C1540       C  0.29415126  0.53532683  0.97670855    -0.10900
C1541       C  0.28469365  0.55597806  0.97829408    -0.00900
C1542       C  0.26243687  0.55821683  0.98086511    -0.06100
H1543       H  0.24864158  0.50458057  0.98165513     0.06400
H1544       H  0.29458684  0.57046633  0.97732520     0.09800
Br1545     Br  0.21742983  0.53195167  0.95807456    -0.05800
Br1546     Br  0.19047916  0.55573057  0.01824143    -0.02700
Br1547     Br  0.29226819  0.48759394  0.97724146     0.00100
Br1548     Br  0.25053727  0.58695937  0.98240785    -0.04300
C1549       C  0.01898680  0.61309358  0.97369879    -0.11700
C1550       C  0.02658233  0.63280329  0.96828834     0.03800
C1551       C  0.01216495  0.64638050  0.96160229    -0.12200
C1552       C  0.99013806  0.64087092  0.96031966     0.18700
C1553       C  0.98254039  0.62130650  0.96569017    -0.09200
C1554       C  0.99690359  0.60763899  0.97229333    -0.02200
H1555       H  0.01800876  0.66163511  0.95769859     0.05200
C1556       C  0.97490584  0.65629783  0.95414142     0.20700
H1557       H  0.99072503  0.59267892  0.97639939     0.10400
C1558       C  0.96615119  0.65141753  0.94204326    -0.15600
C1559       C  0.94990794  0.66452269  0.93658654     0.03400
C1560       C  0.94229897  0.68306895  0.94329382    -0.10900
C1561       C  0.95168383  0.68818156  0.95523375    -0.00900
C1562       C  0.96780216  0.67502828  0.96065500    -0.06100
H1563       H  0.97143618  0.63688298  0.93704279     0.06400
H1564       H  0.94620543  0.70234567  0.96051650     0.09800
Br1565     Br  0.95243061  0.61312959  0.96477873    -0.05800
Br1566     Br  0.05570652  0.64334670  0.97071910    -0.02700
Br1567     Br  0.93751734  0.65469603  0.92068561     0.00100
Br1568     Br  0.97869941  0.68258750  0.97734145    -0.04300
C1569       C  0.77466750  0.71222033  0.80910161    -0.11700
C1570       C  0.76408435  0.71737567  0.82070669     0.03800
C1571       C  0.77635126  0.72238136  0.83161888    -0.12200
C1572       C  0.79917616  0.72251847  0.83117237     0.18700
C1573       C  0.80979152  0.71724810  0.81958990    -0.09200
C1574       C  0.79750312  0.71201016  0.80867663    -0.02200
H1575       H  0.76805297  0.72597713  0.84055314     0.05200
C1576       C  0.81144635  0.72739590  0.84306002     0.20700
H1577       H  0.80577561  0.70802501  0.79979389     0.10400
C1578       C  0.82328847  0.71073707  0.84905692    -0.15600
C1579       C  0.83345894  0.71416379  0.86091482     0.03400
C1580       C  0.83181446  0.73466707  0.86698263    -0.10900
C1581       C  0.82021525  0.75139781  0.86085199    -0.00900
C1582       C  0.81016065  0.74794783  0.84897667    -0.06100
H1583       H  0.82400790  0.69476026  0.84467722     0.06400
H1584       H  0.81881929  0.76720909  0.86538117     0.09800
Br1585     Br  0.84093185  0.71770744  0.81816050    -0.05800
Br1586     Br  0.73298081  0.71651567  0.82237099    -0.02700
Br1587     Br  0.84729230  0.68952229  0.86879402     0.00100
Br1588     Br  0.79494976  0.77180488  0.84116687    -0.04300
C1589       C  0.51714992  0.91899330  0.61880067    -0.11700
C1590       C  0.49869619  0.92432324  0.61136079     0.03800
C1591       C  0.50132952  0.93274735  0.59895078    -0.12200
C1592       C  0.52217157  0.93597722  0.59379887     0.18700
C1593       C  0.54058229  0.93045257  0.60116864    -0.09200
C1594       C  0.53796876  0.92183114  0.61349522    -0.02200
H1595       H  0.48708526  0.93690852  0.59331870     0.05200
C1596       C  0.52453544  0.94601457  0.58096900     0.20700
H1597       H  0.55231415  0.91811525  0.61914544     0.10400
C1598       C  0.52167614  0.96853534  0.57969179    -0.15600
C1599       C  0.52525607  0.97889006  0.56790524     0.03400
C1600       C  0.53180624  0.96659798  0.55712680    -0.10900
C1601       C  0.53439409  0.94399308  0.55840170    -0.00900
C1602       C  0.53058739  0.93364680  0.57016881    -0.06100
H1603       H  0.51720561  0.97817259  0.58799804     0.06400
H1604       H  0.53931556  0.93433912  0.55019295     0.09800
Br1605     Br  0.56960854  0.93559886  0.59507906    -0.05800
Br1606     Br  0.46961763  0.91968394  0.61749545    -0.02700
Br1607     Br  0.52280035  0.01000172  0.56743046     0.00100
Br1608     Br  0.53364777  0.90262365  0.57108628    -0.04300
C1609       C  0.59689055  0.83589200  0.69925217    -0.11700
C1610       C  0.61566392  0.84091322  0.70648049     0.03800
C1611       C  0.62752191  0.82424360  0.71239556    -0.12200
C1612       C  0.62111001  0.80245169  0.71119253     0.18700
C1613       C  0.60279595  0.79732639  0.70362084    -0.09200
C1614       C  0.59098845  0.81399011  0.69762851    -0.02200
H1615       H  0.64169252  0.82831401  0.71811315     0.05200
C1616       C  0.63271900  0.78568319  0.71877630     0.20700
H1617       H  0.57659355  0.80987783  0.69212423     0.10400
C1618       C  0.63030273  0.78571353  0.73217227    -0.15600
C1619       C  0.64112244  0.77042825  0.73982212     0.03400
C1620       C  0.65468088  0.75470045  0.73405867    -0.10900
C1621       C  0.65697845  0.75458079  0.72063277    -0.00900
C1622       C  0.64634690  0.77006024  0.71299912    -0.06100
H1623       H  0.61978595  0.79762803  0.73669035     0.06400
H1624       H  0.66749320  0.74269952  0.71608694     0.09800
Br1625     Br  0.59238342  0.76804077  0.70193727    -0.05800
Br1626     Br  0.62640091  0.87008144  0.70818594    -0.02700
Br1627     Br  0.63568114  0.77099588  0.75796301     0.00100
Br1628     Br  0.65169908  0.76983987  0.69484898    -0.04300
C1629       C  0.50695819  0.13046922  0.85087875    -0.11700
C1630       C  0.52648685  0.12782170  0.85787739     0.03800
C1631       C  0.52580757  0.12004578  0.87051658    -0.12200
C1632       C  0.50595001  0.11486965  0.87641900     0.18700
C1633       C  0.48641136  0.11840462  0.86966805    -0.09200
C1634       C  0.48705439  0.12584481  0.85696131    -0.02200
H1635       H  0.54092542  0.11741488  0.87566066     0.05200
C1636       C  0.50625171  0.10512113  0.88943302     0.20700
H1637       H  0.47189661  0.12804715  0.85179371     0.10400
C1638       C  0.51321692  0.11774379  0.89988298    -0.15600
C1639       C  0.51610057  0.10839752  0.91203028     0.03400
C1640       C  0.51207028  0.08605057  0.91384475    -0.10900
C1641       C  0.50414160  0.07365271  0.90354556    -0.00900
C1642       C  0.50143997  0.08292990  0.89137343    -0.06100
H1643       H  0.51683117  0.13483464  0.89851442     0.06400
H1644       H  0.50117882  0.05640845  0.90479361     0.09800
Br1645     Br  0.45854013  0.11367157  0.87749779    -0.05800
Br1646     Br  0.55465825  0.13262486  0.85045192    -0.02700
Br1647     Br  0.52519580  0.12683365  0.92589779     0.00100
Br1648     Br  0.49302562  0.06415945  0.87750196    -0.04300
C1649       C  0.48387028  0.07726335  0.75358815    -0.11700
C1650       C  0.46687016  0.06198757  0.75247832     0.03800
C1651       C  0.46958259  0.04355587  0.74470265    -0.12200
C1652       C  0.48916345  0.03999172  0.73807063     0.18700
C1653       C  0.50615379  0.05522756  0.73923985    -0.09200
C1654       C  0.50335553  0.07371203  0.74686817    -0.02200
H1655       H  0.45634766  0.03202558  0.74375761     0.05200
C1656       C  0.49161393  0.02056716  0.72978748     0.20700
H1657       H  0.51667662  0.08515563  0.74777054     0.10400
C1658       C  0.49287646  0.02329099  0.71644431    -0.15600
C1659       C  0.49687510  0.00558731  0.70832397     0.03400
C1660       C  0.49933424  0.98449076  0.71355593    -0.10900
C1661       C  0.49770577  0.98180868  0.72693285    -0.00900
C1662       C  0.49388383  0.99959462  0.73502881    -0.06100
H1663       H  0.49142993  0.03944548  0.71236369     0.06400
H1664       H  0.49967614  0.96580950  0.73113974     0.09800
Br1665     Br  0.53381462  0.05105983  0.73102465    -0.05800
Br1666     Br  0.43933273  0.06615504  0.76080482    -0.02700
Br1667     Br  0.50108233  0.01197142  0.69045071     0.00100
Br1668     Br  0.49313885  0.99467232  0.75321704    -0.04300
C1669       C  0.75607339  0.35487712  0.66245504    -0.11700
C1670       C  0.74673044  0.34618776  0.65117000     0.03800
C1671       C  0.75904667  0.34498276  0.63987882    -0.12200
C1672       C  0.78062562  0.35240352  0.63951876     0.18700
C1673       C  0.79011322  0.36074683  0.65078681    -0.09200
C1674       C  0.77783935  0.36197620  0.66210601    -0.02200
H1675       H  0.75149955  0.33890507  0.63118101     0.05200
C1676       C  0.79217394  0.35278765  0.62702898     0.20700
H1677       H  0.78529372  0.36867985  0.67066687     0.10400
C1678       C  0.79530159  0.37277789  0.62079099    -0.15600
C1679       C  0.80361402  0.37364816  0.60827320     0.03400
C1680       C  0.80893826  0.35420602  0.60177765    -0.10900
C1681       C  0.80633325  0.33425969  0.60818244    -0.00900
C1682       C  0.79815636  0.33344590  0.62071808    -0.06100
H1683       H  0.79043513  0.38772576  0.62550515     0.06400
H1684       H  0.81047281  0.31920012  0.60335353     0.09800
Br1685     Br  0.81976259  0.37051626  0.65113356    -0.05800
Br1686     Br  0.71667845  0.33789167  0.65007740    -0.02700
Br1687     Br  0.80507505  0.40161517  0.60013539     0.00100
Br1688     Br  0.79540614  0.30560474  0.62886884    -0.04300
C1689       C  0.70191656  0.58430427  0.74967976    -0.11700
C1690       C  0.68112354  0.57477043  0.74808426     0.03800
C1691       C  0.67936568  0.55279539  0.74469059    -0.12200
C1692       C  0.69798633  0.53994295  0.74306773     0.18700
C1693       C  0.71866033  0.54917867  0.74500105    -0.09200
C1694       C  0.72050386  0.57116371  0.74828854    -0.02200
H1695       H  0.66339706  0.54562658  0.74342466     0.05200
C1696       C  0.69569207  0.51698059  0.73915986     0.20700
H1697       H  0.73657464  0.57809592  0.74953702     0.10400
C1698       C  0.69524786  0.51186353  0.72606025    -0.15600
C1699       C  0.69465445  0.49020137  0.72196740     0.03400
C1700       C  0.69484992  0.47320933  0.73110118    -0.10900
C1701       C  0.69423798  0.47844456  0.74423135    -0.00900
C1702       C  0.69463509  0.50016176  0.74829101    -0.06100
H1703       H  0.69549509  0.52480015  0.71899373     0.06400
H1704       H  0.69403505  0.46561063  0.75135934     0.09800
Br1705     Br  0.74476493  0.53230977  0.74313051    -0.05800
Br1706     Br  0.65450176  0.59018252  0.75136471    -0.02700
Br1707     Br  0.69214590  0.48498529  0.70384466     0.00100
Br1708     Br  0.69409778  0.50623994  0.76635240    -0.04300
C1709       C  0.63182327  0.30580195  0.73549088    -0.11700
C1710       C  0.61956965  0.29073003  0.72820099     0.03800
C1711       C  0.60561652  0.27602597  0.73439626    -0.12200
C1712       C  0.60321338  0.27622781  0.74779880     0.18700
C1713       C  0.61492748  0.29161621  0.75504059    -0.09200
C1714       C  0.62905120  0.30614743  0.74890115    -0.02200
H1715       H  0.59645089  0.26444402  0.72871490     0.05200
C1716       C  0.58883369  0.26001636  0.75411721     0.20700
H1717       H  0.63803322  0.31771095  0.75469010     0.10400
C1718       C  0.59820523  0.24370736  0.76177160    -0.15600
C1719       C  0.58525099  0.22819991  0.76798814     0.03400
C1720       C  0.56240930  0.22886705  0.76664767    -0.10900
C1721       C  0.55305576  0.24490464  0.75876553    -0.00900
C1722       C  0.56603491  0.26045625  0.75256999    -0.06100
H1723       H  0.61574334  0.24292772  0.76280910     0.06400
H1724       H  0.53554474  0.24548404  0.75754211     0.09800
Br1725     Br  0.61158609  0.29387019  0.77331716    -0.05800
Br1726     Br  0.61963578  0.29048001  0.70977218    -0.02700
Br1727     Br  0.59973843  0.20550004  0.77732267     0.00100
Br1728     Br  0.55187558  0.28237196  0.74243974    -0.04300
loop_ 
_geom_bond_atom_site_label_1 
_geom_bond_atom_site_label_2 
_geom_bond_distance 
_geom_bond_site_symmetry_2 
_ccdc_geom_bond_type 
N1            N2   1.321       .  A
N1            C5   1.347       .  A
N1           Cu9   2.076       .  S
N2            C3   1.343       .  A
N2           Cu8   2.069       .  S
C3            C4   1.384       .  A
C3            H6   1.082       .  S
C4            C5   1.385       .  A
C4         C1700   1.479       .  S
C5            H7   1.082       .  S
Cu8          N11   2.069       .  S
Cu9          N19   2.077       .  S
Cu10         N12   2.096       .  S
Cu10         N18   2.096       .  S
N11          N12   1.322       .  A
N11          C15   1.344       .  A
N12          C13   1.349       .  A
C13          C14   1.390       .  A
C13          H16   1.081       .  S
C14          C15   1.382       .  A
C14        C1669   1.484       .  S
C15          H17   1.082       .  S
N18          N19   1.323       .  A
N18          C22   1.349       .  A
N19          C20   1.345       .  A
C20          C21   1.385       .  A
C20          H23   1.082       .  S
C21          C22   1.390       .  A
C21        C1709   1.489       .  S
C22          H24   1.081       .  S
N25          N26   1.324       .  A
N25          C29   1.349       .  A
N25         Cu33   2.097       .  S
N26          C27   1.344       .  A
N26         Cu32   2.074       .  S
C27          C28   1.382       .  A
C27          H30   1.082       .  S
C28          C29   1.389       .  A
C28        C1629   1.484       .  S
C29          H31   1.082       .  S
Cu32         N35   2.074       .  S
Cu33         N43   2.097       .  S
Cu34         N36   2.070       .  S
Cu34         N42   2.070       .  S
N35          N36   1.321       .  A
N35          C39   1.347       .  A
N36          C37   1.343       .  A
C37          C38   1.384       .  A
C37          H40   1.082       .  S
C38          C39   1.385       .  A
C38        C1649   1.478       .  S
C39          H41   1.082       .  S
N42          N43   1.323       .  A
N42          C46   1.345       .  A
N43          C44   1.349       .  A
C44          C45   1.389       .  A
C44          H47   1.082       .  S
C45          C46   1.381       .  A
C45        C1720   1.482       .  S
C46          H48   1.082       .  S
N49          N50   1.322       .  A
N49          C53   1.345       .  A
N49         Cu57   2.078       .  S
N50          C51   1.345       .  A
N50         Cu56   2.076       .  S
C51          C52   1.384       .  A
C51          H54   1.082       .  S
C52          C53   1.385       .  A
C52        C1589   1.479       .  S
C53          H55   1.082       .  S
Cu56         N59   2.076       .  S
Cu57         N67   2.077       .  S
Cu58         N60   2.079       .  S
Cu58         N66   2.080       .  S
N59          N60   1.322       .  A
N59          C63   1.346       .  A
N60          C61   1.345       .  A
C61          C62   1.386       .  A
C61          H64   1.082       .  S
C62          C63   1.386       .  A
C62        C1660   1.484       .  S
C63          H65   1.081       .  S
N66          N67   1.322       .  A
N66          C70   1.345       .  A
N67          C68   1.347       .  A
C68          C69   1.385       .  A
C68          H71   1.082       .  S
C69          C70   1.385       .  A
C69        C1609   1.480       .  S
C70          H72   1.082       .  S
N73          N74   1.321       .  A
N73          C77   1.344       .  A
N73         Cu81   2.071       .  S
N74          C75   1.346       .  A
N74         Cu80   2.079       .  S
C75          C76   1.387       .  A
C75          H78   1.082       .  S
C76          C77   1.385       .  A
C76        C1689   1.483       .  S
C77          H79   1.081       .  S
Cu80         N83   2.078       .  S
Cu81         N91   2.071       .  S
Cu82         N84   2.081       .  S
Cu82         N90   2.081       .  S
N83          N84   1.324       .  A
N83          C87   1.346       .  A
N84          C85   1.345       .  A
C85          C86   1.383       .  A
C85          H88   1.082       .  S
C86          C87   1.381       .  A
C86        C1569   1.474       .  S
C87          H89   1.082       .  S
N90          N91   1.322       .  A
N90          C94   1.347       .  A
N91          C92   1.345       .  A
C92          C93   1.383       .  A
C92          H95   1.082       .  S
C93          C94   1.386       .  A
C93        C1620   1.479       .  S
C94          H96   1.082       .  S
N97          N98   1.322       .  A
N97         C101   1.350       .  A
N97        Cu105   2.089       .  S
N98          C99   1.342       .  A
N98        Cu104   2.068       .  S
C99         C100   1.381       .  A
C99         H102   1.082       .  S
C100        C101   1.388       .  A
C100       C1509   1.479       .  S
C101        H103   1.082       .  S
Cu104       N107   2.068       .  S
Cu105       N115   2.090   1_554  S
Cu106       N108   2.074       .  S
Cu106       N114   2.074       .  S
N107        N108   1.321   1_554  A
N107        C111   1.344       .  A
N108        C109   1.346       .  A
C109        C110   1.385       .  A
C109        H112   1.082       .  S
C110        C111   1.384   1_556  A
C110       C1529   1.479       .  S
C111        H113   1.082       .  S
N114        N115   1.323       .  A
N114        C118   1.345       .  A
N115        C116   1.346       .  A
C116        C117   1.387       .  A
C116        H119   1.082       .  S
C117        C118   1.384       .  A
C117       C1549   1.484       .  S
C118        H120   1.081       .  S
N121        N122   1.322       .  A
N121        C125   1.345       .  A
N121       Cu129   2.074       .  S
N122        C123   1.343       .  A
N122       Cu128   2.070       .  S
C123        C124   1.383       .  A
C123        H126   1.082       .  S
C124        C125   1.385       .  A
C124       C1580   1.478       .  S
C125        H127   1.081       .  S
Cu128       N131   2.069       .  S
Cu129       N139   2.074       .  S
Cu130       N132   2.072       .  S
Cu130       N138   2.073       .  S
N131        N132   1.321       .  A
N131        C135   1.345       .  A
N132        C133   1.343       .  A
C133        C134   1.386       .  A
C133        H136   1.082       .  S
C134        C135   1.386       .  A
C134       C1489   1.481       .  S
C135        H137   1.082       .  S
N138        N139   1.321       .  A
N138        C142   1.343       .  A
N139        C140   1.346       .  A
C140        C141   1.387       .  A
C140        H143   1.081       .  S
C141        C142   1.386       .  A
C141       C1560   1.485       .  S
C142        H144   1.082       .  S
N145        N146   1.322       .  A
N145        C149   1.346       .  A
N145       Cu153   2.080       .  S
N146        C147   1.342       .  A
N146       Cu152   2.062       .  S
C147        C148   1.381       .  A
C147        H150   1.082       .  S
C148        C149   1.386       .  A
C148       C1460   1.477       .  S
C149        H151   1.082       .  S
Cu152       N155   2.062       .  S
Cu153       N163   2.080       .  S
Cu154       N156   2.069       .  S
Cu154       N162   2.069       .  S
N155        N156   1.321       .  A
N155        C159   1.344       .  A
N156        C157   1.344       .  A
C157        C158   1.384       .  A
C157        H160   1.082       .  S
C158        C159   1.382       .  A
C158       C1500   1.475       .  S
C159        H161   1.082       .  S
N162        N163   1.322       .  A
N162        C166   1.343       .  A
N163        C164   1.346       .  A
C164        C165   1.388       .  A
C164        H167   1.081       .  S
C165        C166   1.385       .  A
C165       C1469   1.484       .  S
C166        H168   1.082       .  S
N169        N170   1.322       .  A
N169        C173   1.346       .  A
N169       Cu177   2.069       .  S
N170        C171   1.344       .  A
N170       Cu176   2.072       .  S
C171        C172   1.382       .  A
C171        H174   1.082       .  S
C172        C173   1.383       .  A
C172       C1429   1.472       .  S
C173        H175   1.082       .  S
Cu176       N179   2.072       .  S
Cu177       N187   2.070       .  S
Cu178       N180   2.082       .  S
Cu178       N186   2.082       .  S
N179        N180   1.322       .  A
N179        C183   1.344       .  A
N180        C181   1.347       .  A
C181        C182   1.386       .  A
C181        H184   1.082       .  S
C182        C183   1.384       .  A
C182       C1540   1.482       .  S
C183        H185   1.082       .  S
N186        N187   1.323       .  A
N186        C190   1.347       .  A
N187        C188   1.344       .  A
C188        C189   1.380       .  A
C188        H191   1.082       .  S
C189        C190   1.384       .  A
C189       C1480   1.474       .  S
C190        H192   1.082       .  S
N193        N194   1.320       .  A
N193        C197   1.346       .  A
N193       Cu201   2.075       .  S
N194        C195   1.342       .  A
N194       Cu200   2.060       .  S
C195        C196   1.384       .  A
C195        H198   1.082       .  S
C196        C197   1.388       .  A
C196       C1380   1.481       .  S
C197        H199   1.081       .  S
Cu200       N203   2.059       .  S
Cu201       N211   2.076       .  S
Cu202       N204   2.070       .  S
Cu202       N210   2.071       .  S
N203        N204   1.321       .  A
N203        C207   1.341       .  A
N204        C205   1.345       .  A
C205        C206   1.386       .  A
C205        H208   1.081       .  S
C206        C207   1.382       .  A
C206       C1389   1.477       .  S
C207        H209   1.082       .  S
N210        N211   1.323       .  A
N210        C214   1.344       .  A
N211        C212   1.344       .  A
C212        C213   1.385       .  A
C212        H215   1.082       .  S
C213        C214   1.384       .  A
C213       C1409   1.480       .  S
C214        H216   1.082       .  S
N217        N218   1.322       .  A
N217        C221   1.349       .  A
N217       Cu225   2.091       .  S
N218        C219   1.343       .  A
N218       Cu224   2.065       .  S
C219        C220   1.380       .  A
C219        H222   1.082       .  S
C220        C221   1.388       .  A
C220       C1329   1.476       .  S
C221        H223   1.082       .  S
Cu224       N227   2.065       .  S
Cu225       N235   2.091       .  S
Cu226       N228   2.066       .  S
Cu226       N234   2.067       .  S
N227        N228   1.319       .  A
N227        C231   1.342       .  A
N228        C229   1.345       .  A
C229        C230   1.386       .  A
C229        H232   1.082       .  S
C230        C231   1.385       .  A
C230       C1349   1.481       .  S
C231        H233   1.081       .  S
N234        N235   1.324       .  A
N234        C238   1.342       .  A
N235        C236   1.347       .  A
C236        C237   1.388       .  A
C236        H239   1.082       .  S
C237        C238   1.382       .  A
C237       C1420   1.482       .  S
C238        H240   1.083       .  S
N241        N242   1.320       .  A
N241        C245   1.344       .  A
N241       Cu249   2.063       .  S
N242        C243   1.344       .  A
N242       Cu248   2.067       .  S
C243        C244   1.384       .  A
C243        H246   1.082       .  S
C244        C245   1.383       .  A
C244       C1360   1.476       .  S
C245        H247   1.082       .  S
Cu248       N251   2.067       .  S
Cu249       N259   2.063       .  S
Cu250       N252   2.084       .  S
Cu250       N258   2.084       .  S
N251        N252   1.323       .  A
N251        C255   1.342       .  A
N252        C253   1.348       .  A
C253        C254   1.386       .  A
C253        H256   1.082       .  S
C254        C255   1.381       .  A
C254       C1300   1.479       .  S
C255        H257   1.082       .  S
N258        N259   1.323       .  A
N258        C262   1.346       .  A
N259        C260   1.342       .  A
C260        C261   1.382       .  A
C260        H263   1.082       .  S
C261        C262   1.387       .  A
C261       C1320   1.479       .  S
C262        H264   1.082       .  S
N265        N266   1.322       .  A
N265        C269   1.347       .  A
N265       Cu273   2.077       .  S
N266        C267   1.342       .  A
N266       Cu272   2.065       .  S
C267        C268   1.381       .  A
C267        H270   1.082       .  S
C268        C269   1.385       .  A
C268       C1440   1.473       .  S
C269        H271   1.082       .  S
Cu272       N275   2.065       .  S
Cu273       N283   2.077       .  S
Cu274       N276   2.066       .  S
Cu274       N282   2.068       .  S
N275        N276   1.321       .  A
N275        C279   1.344       .  A
N276        C277   1.343       .  A
C277        C278   1.384       .  A
C277        H280   1.081       .  S
C278        C279   1.383       .  A
C278       C1400   1.476       .  S
C279        H281   1.082       .  S
N282        N283   1.322       .  A
N282        C286   1.343       .  A
N283        C284   1.344       .  A
C284        C285   1.386       .  A
C284        H287   1.082       .  S
C285        C286   1.385       .  A
C285       C1309   1.483       .  S
C286        H288   1.081       .  S
N289        N290   1.321       .  A
N289        C293   1.350       .  A
N289       Cu297   2.091       .  S
N290        C291   1.339       .  A
N290       Cu296   2.055       .  S
C291        C292   1.380       .  A
C291        H294   1.081       .  S
C292        C293   1.390       .  A
C292       C1229   1.481       .  S
C293        H295   1.082       .  S
Cu296       N299   2.055       .  S
Cu297       N307   2.092       .  S
Cu298       N300   2.061       .  S
Cu298       N306   2.062       .  S
N299        N300   1.318       .  A
N299        C303   1.340       .  A
N300        C301   1.344       .  A
C301        C302   1.387       .  A
C301        H304   1.081       .  S
C302        C303   1.385       .  A
C302       C1249   1.479       .  S
C303        H305   1.082       .  S
N306        N307   1.323       .  A
N306        C310   1.342       .  A
N307        C308   1.346       .  A
C308        C309   1.389       .  A
C308        H311   1.082       .  S
C309        C310   1.381       .  A
C309       C1269   1.481       .  S
C310        H312   1.081       .  S
N313        N314   1.322       .  A
N313        C317   1.346       .  A
N313       Cu321   2.075       .  S
N314        C315   1.343       .  A
N314       Cu320   2.066       .  S
C315        C316   1.383       .  A
C315        H318   1.082       .  S
C316        C317   1.385       .  A
C316       C1209   1.478       .  S
C317        H319   1.082       .  S
Cu320       N323   2.066       .  S
Cu321       N331   2.075       .  S
Cu322       N324   2.069       .  S
Cu322       N330   2.069       .  S
N323        N324   1.321       .  A
N323        C327   1.343       .  A
N324        C325   1.345       .  A
C325        C326   1.384       .  A
C325        H328   1.082       .  S
C326        C327   1.382       .  A
C326       C1369   1.475       .  S
C327        H329   1.082       .  S
N330        N331   1.322       .  A
N330        C334   1.344       .  A
N331        C332   1.345       .  A
C332        C333   1.384       .  A
C332        H335   1.082       .  S
C333        C334   1.383       .  A
C333       C1280   1.476       .  S
C334        H336   1.082       .  S
N337        N338   1.322       .  A
N337        C341   1.348       .  A
N337       Cu345   2.087       .  S
N338        C339   1.343       .  A
N338       Cu344   2.068       .  S
C339        C340   1.382       .  A
C339        H342   1.082       .  S
C340        C341   1.387       .  A
C340       C1680   1.481       .  S
C341        H343   1.082       .  S
Cu344       N347   2.066       .  S
Cu345       N355   2.087       .  S
Cu346       N348   2.067       .  S
Cu346       N354   2.070       .  S
N347        N348   1.320       .  A
N347        C351   1.343       .  A
N348        C349   1.343       .  A
C349        C350   1.386       .  A
C349        H352   1.082       .  S
C350        C351   1.385       .  A
C350       C1260   1.478       .  S
C351        H353   1.082       .  S
N354        N355   1.323       .  A
N354        C358   1.344       .  A
N355        C356   1.347       .  A
C356        C357   1.386       .  A
C356        H359   1.082       .  S
C357        C358   1.382       .  A
C357       C1200   1.480       .  S
C358        H360   1.082       .  S
N361        N362   1.321       .  A
N361        C365   1.345       .  A
N361       Cu369   2.078       .  S
N362        C363   1.344       .  A
N362       Cu368   2.065       .  S
C363        C364   1.383       .  A
C363        H366   1.082       .  S
C364        C365   1.386       .  A
C364       C1220   1.479       .  S
C365        H367   1.082       .  S
Cu368       N371   2.065       .  S
Cu369       N379   2.078       .  S
Cu370       N372   2.083       .  S
Cu370       N378   2.083       .  S
N371        N372   1.322       .  A
N371        C375   1.343       .  A
N372        C373   1.348       .  A
C373        C374   1.386       .  A
C373        H376   1.082       .  S
C374        C375   1.380       .  A
C374       C1169   1.475       .  S
C375        H377   1.082       .  S
N378        N379   1.324       .  A
N378        C382   1.345   1_455  A
N379        C380   1.347       .  A
C380        C381   1.383       .  A
C380        H383   1.082       .  S
C381        C382   1.384   1_455  A
C381       C1189   1.478   1_455  S
C382        H384   1.082       .  S
N385        N386   1.322       .  A
N385        C389   1.348       .  A
N385       Cu393   2.083       .  S
N386        C387   1.342       .  A
N386       Cu392   2.063       .  S
C387        C388   1.380       .  A
C387        H390   1.082       .  S
C388        C389   1.386       .  A
C388       C1109   1.475       .  S
C389        H391   1.082       .  S
Cu392       N395   2.063       .  S
Cu393       N403   2.083       .  S
Cu394       N396   2.078       .  S
Cu394       N402   2.079       .  S
N395        N396   1.320       .  A
N395        C399   1.342       .  A
N396        C397   1.346       .  A
C397        C398   1.388       .  A
C397        H400   1.082       .  S
C398        C399   1.384       .  A
C398       C1140   1.482       .  S
C399        H401   1.081       .  S
N402        N403   1.324       .  A
N402        C406   1.345       .  A
N403        C404   1.346       .  A
C404        C405   1.385       .  A
C404        H407   1.082       .  S
C405        C406   1.385       .  A
C405       C1160   1.481       .  S
C406        H408   1.082       .  S
N409        N410   1.322       .  A
N409        C413   1.347       .  A
N409       Cu417   2.078       .  S
N410        C411   1.344       .  A
N410       Cu416   2.068       .  S
C411        C412   1.381       .  A
C411        H414   1.082       .  S
C412        C413   1.385       .  A
C412       C1520   1.475       .  S
C413        H415   1.082       .  S
Cu416       N419   2.068       .  S
Cu417       N427   2.078       .  S
Cu418       N420   2.078       .  S
Cu418       N426   2.078       .  S
N419        N420   1.322       .  A
N419        C423   1.344       .  A
N420        C421   1.345       .  A
C421        C422   1.385       .  A
C421        H424   1.082       .  S
C422        C423   1.384       .  A
C422       C1089   1.480       .  S
C423        H425   1.081       .  S
N426        N427   1.321       .  A
N426        C430   1.346       .  A
N427        C428   1.344       .  A
C428        C429   1.387       .  A
C428        H431   1.080       .  S
C429        C430   1.388       .  A
C429       C1149   1.488       .  S
C430        H432   1.082       .  S
N433        N434   1.322       .  A
N433        C437   1.346       .  A
N433       Cu441   2.078       .  S
N434        C435   1.343       .  A
N434       Cu440   2.066       .  S
C435        C436   1.383       .  A
C435        H438   1.082       .  S
C436        C437   1.387       .  A
C436       C1129   1.481   1_565  S
C437        H439   1.081       .  S
Cu440       N443   2.066       .  S
Cu441       N451   2.078       .  S
Cu442       N444   2.071       .  S
Cu442       N450   2.072       .  S
N443        N444   1.321       .  A
N443        C447   1.343       .  A
N444        C445   1.345       .  A
C445        C446   1.385       .  A
C445        H448   1.082       .  S
C446        C447   1.384       .  A
C446       C1049   1.477       .  S
C447        H449   1.082       .  S
N450        N451   1.322       .  A
N450        C454   1.343       .  A
N451        C452   1.346       .  A
C452        C453   1.387       .  A
C452        H455   1.082       .  S
C453        C454   1.385       .  A
C453       C1069   1.484       .  S
C454        H456   1.081       .  S
N457        N458   1.322       .  A
N457        C461   1.347       .  A
N457       Cu465   2.085       .  S
N458        C459   1.343       .  A
N458       Cu464   2.068       .  S
C459        C460   1.382       .  A
C459        H462   1.082   1_455  S
C460        C461   1.387       .  A
C460       C1180   1.479       .  S
C461        H463   1.082       .  S
Cu464       N467   2.067       .  S
Cu465       N475   2.085       .  S
Cu466       N468   2.068       .  S
Cu466       N474   2.068       .  S
N467        N468   1.321       .  A
N467        C471   1.344       .  A
N468        C469   1.344       .  A
C469        C470   1.384       .  A
C469        H472   1.082       .  S
C470        C471   1.384       .  A
C470       C1100   1.476       .  S
C471        H473   1.082   1_455  S
N474        N475   1.322       .  A
N474        C478   1.343       .  A
N475        C476   1.347       .  A
C476        C477   1.387       .  A
C476        H479   1.081       .  S
C477        C478   1.383       .  A
C477       C1080   1.481       .  S
C478        H480   1.082       .  S
N481        N482   1.322       .  A
N481        C485   1.348       .  A
N481       Cu489   2.083       .  S
N482        C483   1.342       .  A
N482       Cu488   2.063       .  S
C483        C484   1.382       .  A
C483        H486   1.082       .  S
C484        C485   1.387       .  A
C484       C1000   1.478       .  S
C485        H487   1.082       .  S
Cu488       N491   2.062   1_554  S
Cu489       N499   2.084   1_544  S
Cu490       N492   2.070   1_565  S
Cu490       N498   2.071       .  S
N491        N492   1.320       .  A
N491        C495   1.342       .  A
N492        C493   1.346       .  A
C493        C494   1.386       .  A
C493        H496   1.082   1_545  S
C494        C495   1.383       .  A
C494       C1020   1.476       .  S
C495        H497   1.082   1_556  S
N498        N499   1.323       .  A
N498        C502   1.342       .  A
N499        C500   1.347       .  A
C500        C501   1.386       .  A
C500        H503   1.082       .  S
C501        C502   1.382       .  A
C501       C1040   1.480       .  S
C502        H504   1.082       .  S
N505        N506   1.324       .  A
N505        C509   1.351       .  A
N505       Cu513   2.105       .  S
N506        C507   1.341       .  A
N506       Cu512   2.065       .  S
C507        C508   1.379       .  A
C507        H510   1.082       .  S
C508        C509   1.391       .  A
C508       C1340   1.482       .  S
C509        H511   1.082       .  S
Cu512       N515   2.064       .  S
Cu513       N523   2.104       .  S
Cu514       N516   2.051       .  S
Cu514       N522   2.052       .  S
N515        N516   1.318       .  A
N515        C519   1.345       .  A
N516        C517   1.340       .  A
C517        C518   1.384       .  A
C517        H520   1.081       .  S
C518        C519   1.387       .  A
C518        C969   1.479       .  S
C519        H521   1.082       .  S
N522        N523   1.323       .  A
N522        C526   1.340       .  A
N523        C524   1.351       .  A
C524        C525   1.392       .  A
C524        H527   1.082       .  S
C525        C526   1.378       .  A
C525       C1029   1.482       .  S
C526        H528   1.082       .  S
N529        N530   1.322       .  A
N529        C533   1.344       .  A
N529       Cu537   2.076       .  S
N530        C531   1.344       .  A
N530       Cu536   2.074       .  S
C531        C532   1.386       .  A
C531        H534   1.082       .  S
C532        C533   1.387       .  A
C532       C1060   1.483       .  S
C533        H535   1.081       .  S
Cu536       N539   2.073       .  S
Cu537       N547   2.075       .  S
Cu538       N540   2.059       .  S
Cu538       N546   2.060       .  S
N539        N540   1.320       .  A
N539        C543   1.346       .  A
N540        C541   1.340       .  A
C541        C542   1.383       .  A
C541        H544   1.082   1_554  S
C542        C543   1.388       .  A
C542        C980   1.479   1_554  S
C543        H545   1.082       .  S
N546        N547   1.321       .  A
N546        C550   1.342       .  A
N547        C548   1.345       .  A
C548        C549   1.387       .  A
C548        H551   1.082       .  S
C549        C550   1.383       .  A
C549        C949   1.478       .  S
C550        H552   1.082       .  S
N553        N554   1.320       .  A
N553        C557   1.342       .  A
N553       Cu561   2.059   1_545  S
N554        C555   1.345       .  A
N554       Cu560   2.078       .  S
C555        C556   1.388       .  A
C555        H558   1.082       .  S
C556        C557   1.384       .  A
C556       C1009   1.483       .  S
C557        H559   1.081   1_545  S
Cu560       N563   2.078       .  S
Cu561       N571   2.059       .  S
Cu562       N564   2.077       .  S
Cu562       N570   2.076       .  S
N563        N564   1.323       .  A
N563        C567   1.344       .  A
N564        C565   1.347       .  A
C565        C566   1.384       .  A
C565        H568   1.082       .  S
C566        C567   1.383       .  A
C566       C1640   1.476       .  S
C567        H569   1.082       .  S
N570        N571   1.322   1_545  A
N570        C574   1.345   1_545  A
N571        C572   1.343       .  A
C572        C573   1.381       .  A
C572        H575   1.082       .  S
C573        C574   1.384       .  A
C573        C960   1.474       .  S
C574        H576   1.082       .  S
N577        N578   1.322       .  A
N577        C581   1.348       .  A
N577       Cu585   2.087       .  S
N578        C579   1.342       .  A
N578       Cu584   2.065       .  S
C579        C580   1.383       .  A
C579        H582   1.082       .  S
C580        C581   1.389       .  A
C580       C1289   1.482       .  S
C581        H583   1.082       .  S
Cu584       N587   2.065       .  S
Cu585       N595   2.087       .  S
Cu586       N588   2.068       .  S
Cu586       N594   2.068       .  S
N587        N588   1.320       .  A
N587        C591   1.344       .  A
N588        C589   1.344       .  A
C589        C590   1.384       .  A
C589        H592   1.082       .  S
C590        C591   1.384       .  A
C590        C909   1.475       .  S
C591        H593   1.082       .  S
N594        N595   1.322       .  A
N594        C598   1.342       .  A
N595        C596   1.348       .  A
C596        C597   1.389       .  A
C596        H599   1.081       .  S
C597        C598   1.384       .  A
C597        C929   1.485       .  S
C598        H600   1.082       .  S
N601        N602   1.321       .  A
N601        C605   1.348       .  A
N601       Cu609   2.081       .  S
N602        C603   1.342       .  A
N602       Cu608   2.063   1_545  S
C603        C604   1.383       .  A
C603        H606   1.082   1_545  S
C604        C605   1.389       .  A
C604        C889   1.483       .  S
C605        H607   1.081       .  S
Cu608       N611   2.063       .  S
Cu609       N619   2.082       .  S
Cu610       N612   2.081   1_545  S
Cu610       N618   2.082       .  S
N611        N612   1.321       .  A
N611        C615   1.342       .  A
N612        C613   1.348       .  A
C613        C614   1.387       .  A
C613        H616   1.082       .  S
C614        C615   1.381       .  A
C614        C869   1.477       .  S
C615        H617   1.082       .  S
N618        N619   1.324       .  A
N618        C622   1.345       .  A
N619        C620   1.346       .  A
C620        C621   1.386       .  A
C620        H623   1.081       .  S
C621        C622   1.385       .  A
C621        C940   1.483       .  S
C622        H624   1.082       .  S
N625        N626   1.322       .  A
N625        C629   1.348       .  A
N625       Cu633   2.081       .  S
N626        C627   1.342   1_545  A
N626       Cu632   2.071   1_545  S
C627        C628   1.383   1_565  A
C627        H630   1.082       .  S
C628        C629   1.387       .  A
C628        C900   1.480       .  S
C629        H631   1.082       .  S
Cu632       N635   2.071       .  S
Cu633       N643   2.082       .  S
Cu634       N636   2.082   1_545  S
Cu634       N642   2.083       .  S
N635        N636   1.322       .  A
N635        C639   1.345       .  A
N636        C637   1.347       .  A
C637        C638   1.386       .  A
C637        H640   1.082       .  S
C638        C639   1.383       .  A
C638       C1600   1.479       .  S
C639        H641   1.082       .  S
N642        N643   1.323       .  A
N642        C646   1.346       .  A
N643        C644   1.346       .  A
C644        C645   1.387       .  A
C644        H647   1.082       .  S
C645        C646   1.387       .  A
C645        C849   1.487       .  S
C646        H648   1.081       .  S
N649        N650   1.324       .  A
N649        C653   1.347       .  A
N649       Cu657   2.089       .  S
N650        C651   1.344       .  A
N650       Cu656   2.066       .  S
C651        C652   1.379       .  A
C651        H654   1.082       .  S
C652        C653   1.385       .  A
C652       C1120   1.474       .  S
C653        H655   1.082       .  S
Cu656       N659   2.066       .  S
Cu657       N667   2.089       .  S
Cu658       N660   2.066       .  S
Cu658       N666   2.067       .  S
N659        N660   1.320       .  A
N659        C663   1.344       .  A
N660        C661   1.343       .  A
C661        C662   1.384       .  A
C661        H664   1.082       .  S
C662        C663   1.385       .  A
C662        C920   1.477       .  S
C663        H665   1.082       .  S
N666        N667   1.322       .  A
N666        C670   1.343       .  A
N667        C668   1.348       .  A
C668        C669   1.389       .  A
C668        H671   1.082       .  S
C669        C670   1.384       .  A
C669        C860   1.484       .  S
C670        H672   1.082       .  S
N673        N674   1.321       .  A
N673        C677   1.348       .  A
N673       Cu681   2.078       .  S
N674        C675   1.338       .  A
N674       Cu680   2.060       .  S
C675        C676   1.383       .  A
C675        H678   1.082       .  S
C676        C677   1.390       .  A
C676       C1240   1.484       .  S
C677        H679   1.080       .  S
Cu680       N683   2.059       .  S
Cu681       N691   2.079       .  S
Cu682       N684   2.060       .  S
Cu682       N690   2.061       .  S
N683        N684   1.319       .  A
N683        C687   1.343       .  A
N684        C685   1.343       .  A
C685        C686   1.385       .  A
C685        H688   1.082       .  S
C686        C687   1.384       .  A
C686        C820   1.476       .  S
C687        H689   1.081       .  S
N690        N691   1.322       .  A
N690        C694   1.340       .  A
N691        C692   1.345       .  A
C692        C693   1.388       .  A
C692        H695   1.081       .  S
C693        C694   1.383       .  A
C693        C829   1.481       .  S
C694        H696   1.082       .  S
N697        N698   1.324       .  A
N697        C701   1.347       .  A
N697       Cu705   2.084       .  S
N698        C699   1.342       .  A
N698       Cu704   2.064       .  S
C699        C700   1.379       .  A
C699        H702   1.082       .  S
C700        C701   1.384       .  A
C700        C989   1.472       .  S
C701        H703   1.082       .  S
Cu704       N707   2.063       .  S
Cu705       N715   2.083       .  S
Cu706       N708   2.050       .  S
Cu706       N714   2.051       .  S
N707        N708   1.319       .  A
N707        C711   1.343       .  A
N708        C709   1.341       .  A
C709        C710   1.382       .  A
C709        H712   1.082       .  S
C710        C711   1.384       .  A
C710        C800   1.472       .  S
C711        H713   1.082       .  S
N714        N715   1.321       .  A
N714        C718   1.338       .  A
N715        C716   1.347       .  A
C716        C717   1.390       .  A
C716        H719   1.081       .  S
C717        C718   1.381       .  A
C717        C840   1.480       .  S
C718        H720   1.082       .  S
N721        N722   1.322       .  A
N721        C725   1.350       .  A
N721       Cu729   2.089       .  S
N722        C723   1.339       .  A
N722       Cu728   2.054       .  S
C723        C724   1.378       .  A
C723        H726   1.082       .  S
C724        C725   1.388       .  A
C724        C880   1.476       .  S
C725        H727   1.082       .  S
Cu728       N731   2.053       .  S
Cu729       N739   2.089       .  S
Cu730       N732   2.063       .  S
Cu730       N738   2.064       .  S
N731        N732   1.319       .  A
N731        C735   1.341       .  A
N732        C733   1.343       .  A
C733        C734   1.386       .  A
C733        H736   1.081       .  S
C734        C735   1.383       .  A
C734        C789   1.476       .  S
C735        H737   1.082       .  S
N738        N739   1.324       .  A
N738        C742   1.341       .  A
N739        C740   1.348       .  A
C740        C741   1.387       .  A
C740        H743   1.082       .  S
C741        C742   1.380       .  A
C741        C769   1.478       .  S
C742        H744   1.082       .  S
N745        N746   1.321       .  A
N745        C749   1.344       .  A
N745       Cu753   2.065       .  S
N746        C747   1.342       .  A
N746       Cu752   2.063       .  S
C747        C748   1.382       .  A
C747        H750   1.082       .  S
C748        C749   1.384       .  A
C748        C809   1.473       .  S
C749        H751   1.082       .  S
Cu752       N755   2.064       .  S
Cu753       N763   2.066       .  S
Cu754       N756   2.079       .  S
Cu754       N762   2.080       .  S
N755        N756   1.321       .  A
N755        C759   1.342       .  A
N756        C757   1.346       .  A
C757        C758   1.387       .  A
C757        H760   1.081       .  S
C758        C759   1.382       .  A
C758       C1449   1.480       .  S
C759        H761   1.082       .  S
N762        N763   1.322       .  A
N762        C766   1.345       .  A
N763        C764   1.343       .  A
C764        C765   1.384       .  A
C764        H767   1.081       .  S
C765        C766   1.387       .  A
C765        C780   1.482       .  S
C766        H768   1.082       .  S
C769        C770   1.411       .  A
C769        C774   1.405       .  A
C770        C771   1.397       .  A
C770       Br786   1.920       .  S
C771        C772   1.400       .  A
C771        H775   1.084       .  S
C772        C773   1.408       .  A
C772        C776   1.477       .  S
C773        C774   1.400       .  A
C773       Br785   1.919       .  S
C774        H777   1.083       .  S
C776        C778   1.401       .  A
C776        C782   1.407       .  A
C778        C779   1.400       .  A
C778        H783   1.084       .  S
C779        C780   1.414       .  A
C779       Br787   1.920       .  S
C780        C781   1.405       .  A
C781        C782   1.397       .  A
C781        H784   1.083       .  S
C782       Br788   1.919       .  S
C789        C790   1.414       .  A
C789        C794   1.406       .  A
C790        C791   1.396       .  A
C790       Br806   1.920       .  S
C791        C792   1.399   1_565  A
C791        H795   1.084       .  S
C792        C793   1.404       .  A
C792        C796   1.468       .  S
C793        C794   1.396   1_545  A
C793       Br805   1.919       .  S
C794        H797   1.083       .  S
C796        C798   1.399       .  A
C796        C802   1.405       .  A
C798        C799   1.396       .  A
C798        H803   1.084       .  S
C799        C800   1.413       .  A
C799       Br807   1.921       .  S
C800        C801   1.404       .  A
C801        C802   1.396       .  A
C801        H804   1.083       .  S
C802       Br808   1.918       .  S
C809        C810   1.411       .  A
C809        C814   1.404       .  A
C810        C811   1.397       .  A
C810       Br826   1.919       .  S
C811        C812   1.400       .  A
C811        H815   1.084       .  S
C812        C813   1.404       .  A
C812        C816   1.469       .  S
C813        C814   1.397       .  A
C813       Br825   1.918       .  S
C814        H817   1.083       .  S
C816        C818   1.399       .  A
C816        C822   1.404       .  A
C818        C819   1.398       .  A
C818        H823   1.084       .  S
C819        C820   1.414       .  A
C819       Br827   1.920       .  S
C820        C821   1.405       .  A
C821        C822   1.395       .  A
C821        H824   1.083       .  S
C822       Br828   1.919       .  S
C829        C830   1.413       .  A
C829        C834   1.407       .  A
C830        C831   1.397       .  A
C830       Br846   1.919       .  S
C831        C832   1.401       .  A
C831        H835   1.084       .  S
C832        C833   1.406       .  A
C832        C836   1.475       .  S
C833        C834   1.395       .  A
C833       Br845   1.921       .  S
C834        H837   1.082       .  S
C836        C838   1.402       .  A
C836        C842   1.406       .  A
C838        C839   1.399       .  A
C838        H843   1.084       .  S
C839        C840   1.413       .  A
C839       Br847   1.919       .  S
C840        C841   1.407       .  A
C841        C842   1.394       .  A
C841        H844   1.083       .  S
C842       Br848   1.921       .  S
C849        C850   1.415       .  A
C849        C854   1.407       .  A
C850        C851   1.401       .  A
C850       Br866   1.919       .  S
C851        C852   1.401       .  A
C851        H855   1.084       .  S
C852        C853   1.406       .  A
C852        C856   1.481       .  S
C853        C854   1.400       .  A
C853       Br865   1.918       .  S
C854        H857   1.083       .  S
C856        C858   1.401       .  A
C856        C862   1.407       .  A
C858        C859   1.400       .  A
C858        H863   1.084       .  S
C859        C860   1.414       .  A
C859       Br867   1.920       .  S
C860        C861   1.406       .  A
C861        C862   1.401       .  A
C861        H864   1.083       .  S
C862       Br868   1.918       .  S
C869        C870   1.411       .  A
C869        C874   1.403       .  A
C870        C871   1.398       .  A
C870       Br886   1.919       .  S
C871        C872   1.401       .  A
C871        H875   1.084       .  S
C872        C873   1.409       .  A
C872        C876   1.478       .  S
C873        C874   1.400       .  A
C873       Br885   1.919       .  S
C874        H877   1.083       .  S
C876        C878   1.401       .  A
C876        C882   1.408       .  A
C878        C879   1.395       .  A
C878        H883   1.084       .  S
C879        C880   1.411       .  A
C879       Br887   1.921       .  S
C880        C881   1.404       .  A
C881        C882   1.402       .  A
C881        H884   1.083       .  S
C882       Br888   1.917       .  S
C889        C890   1.414       .  A
C889        C894   1.406   1_545  A
C890        C891   1.402       .  A
C890       Br906   1.919       .  S
C891        C892   1.402       .  A
C891        H895   1.083       .  S
C892        C893   1.405   1_545  A
C892        C896   1.477       .  S
C893        C894   1.396       .  A
C893       Br905   1.919       .  S
C894        H897   1.083       .  S
C896        C898   1.404       .  A
C896        C902   1.405       .  A
C898        C899   1.402       .  A
C898        H903   1.083       .  S
C899        C900   1.411       .  A
C899       Br907   1.919       .  S
C900        C901   1.405       .  A
C901        C902   1.397       .  A
C901        H904   1.083       .  S
C902       Br908   1.918       .  S
C909        C910   1.411       .  A
C909        C914   1.404       .  A
C910        C911   1.400       .  A
C910       Br926   1.919       .  S
C911        C912   1.401       .  A
C911        H915   1.083       .  S
C912        C913   1.406       .  A
C912        C916   1.472       .  S
C913        C914   1.396       .  A
C913       Br925   1.919       .  S
C914        H917   1.083       .  S
C916        C918   1.400       .  A
C916        C922   1.405       .  A
C918        C919   1.399       .  A
C918        H923   1.084       .  S
C919        C920   1.411       .  A
C919       Br927   1.919       .  S
C920        C921   1.405       .  A
C921        C922   1.397       .  A
C921        H924   1.083       .  S
C922       Br928   1.919       .  S
C929        C930   1.413       .  A
C929        C934   1.407       .  A
C930        C931   1.402   1_455  A
C930       Br946   1.918       .  S
C931        C932   1.403       .  A
C931        H935   1.084       .  S
C932        C933   1.406   1_655  A
C932        C936   1.480       .  S
C933        C934   1.397       .  A
C933       Br945   1.919   1_455  S
C934        H937   1.083       .  S
C936        C938   1.402       .  A
C936        C942   1.407       .  A
C938        C939   1.402       .  A
C938        H943   1.084       .  S
C939        C940   1.414       .  A
C939       Br947   1.919       .  S
C940        C941   1.405       .  A
C941        C942   1.398       .  A
C941        H944   1.083       .  S
C942       Br948   1.919   1_655  S
C949        C950   1.413       .  A
C949        C954   1.405       .  A
C950        C951   1.400       .  A
C950       Br966   1.919       .  S
C951        C952   1.400       .  A
C951        H955   1.084       .  S
C952        C953   1.405   1_554  A
C952        C956   1.471       .  S
C953        C954   1.395   1_556  A
C953       Br965   1.920       .  S
C954        H957   1.083   1_554  S
C956        C958   1.400   1_554  A
C956        C962   1.405       .  A
C958        C959   1.398       .  A
C958        H963   1.084       .  S
C959        C960   1.412       .  A
C959       Br967   1.920       .  S
C960        C961   1.404       .  A
C961        C962   1.397   1_556  A
C961        H964   1.083       .  S
C962       Br968   1.919       .  S
C969        C970   1.414       .  A
C969        C974   1.406       .  A
C970        C971   1.394       .  A
C970       Br986   1.921       .  S
C971        C972   1.400       .  A
C971        H975   1.084       .  S
C972        C973   1.407       .  A
C972        C976   1.476       .  S
C973        C974   1.399       .  A
C973       Br985   1.918       .  S
C974        H977   1.083       .  S
C976        C978   1.403       .  A
C976        C982   1.406       .  A
C978        C979   1.401       .  A
C978        H983   1.083       .  S
C979        C980   1.411       .  A
C979       Br987   1.919   1_556  S
C980        C981   1.405       .  A
C981        C982   1.393       .  A
C981        H984   1.083       .  S
C982       Br988   1.921       .  S
C989        C990   1.409       .  A
C989        C994   1.402       .  A
C990        C991   1.397       .  A
C990      Br1006   1.920       .  S
C991        C992   1.403       .  A
C991        H995   1.084       .  S
C992        C993   1.411       .  A
C992        C996   1.482       .  S
C993        C994   1.400       .  A
C993      Br1005   1.919       .  S
C994        H997   1.084       .  S
C996        C998   1.402       .  A
C996       C1002   1.411       .  A
C998        C999   1.398       .  A
C998       H1003   1.083       .  S
C999       C1000   1.412       .  A
C999      Br1007   1.920       .  S
C1000      C1001   1.403       .  A
C1001      C1002   1.400       .  A
C1001      H1004   1.083       .  S
C1002     Br1008   1.920       .  S
C1009      C1010   1.416       .  A
C1009      C1014   1.407       .  A
C1010      C1011   1.397       .  A
C1010     Br1026   1.920   1_545  S
C1011      C1012   1.399       .  A
C1011      H1015   1.084       .  S
C1012      C1013   1.405       .  A
C1012      C1016   1.473       .  S
C1013      C1014   1.398       .  A
C1013     Br1025   1.918       .  S
C1014      H1017   1.083       .  S
C1016      C1018   1.401   1_545  A
C1016      C1022   1.406       .  A
C1018      C1019   1.400       .  A
C1018      H1023   1.084       .  S
C1019      C1020   1.412   1_565  A
C1019     Br1027   1.919       .  S
C1020      C1021   1.404       .  A
C1021      C1022   1.396       .  A
C1021      H1024   1.083       .  S
C1022     Br1028   1.919       .  S
C1029      C1030   1.410       .  A
C1029      C1034   1.406       .  A
C1030      C1031   1.401   1_455  A
C1030     Br1046   1.918       .  S
C1031      C1032   1.404       .  A
C1031      H1035   1.083       .  S
C1032      C1033   1.409       .  A
C1032      C1036   1.483       .  S
C1033      C1034   1.398   1_655  A
C1033     Br1045   1.921       .  S
C1034      H1037   1.084       .  S
C1036      C1038   1.402       .  A
C1036      C1042   1.410       .  A
C1038      C1039   1.398       .  A
C1038      H1043   1.084       .  S
C1039      C1040   1.413       .  A
C1039     Br1047   1.920       .  S
C1040      C1041   1.404       .  A
C1041      C1042   1.401       .  A
C1041      H1044   1.083       .  S
C1042     Br1048   1.919       .  S
C1049      C1050   1.411       .  A
C1049      C1054   1.405       .  A
C1050      C1051   1.397       .  A
C1050     Br1066   1.920       .  S
C1051      C1052   1.403       .  A
C1051      H1055   1.084       .  S
C1052      C1053   1.408       .  A
C1052      C1056   1.480       .  S
C1053      C1054   1.399       .  A
C1053     Br1065   1.919       .  S
C1054      H1057   1.083       .  S
C1056      C1058   1.402       .  A
C1056      C1062   1.407       .  A
C1058      C1059   1.400       .  A
C1058      H1063   1.083       .  S
C1059      C1060   1.414       .  A
C1059     Br1067   1.920       .  S
C1060      C1061   1.406       .  A
C1061      C1062   1.397       .  A
C1061      H1064   1.083       .  S
C1062     Br1068   1.920       .  S
C1069      C1070   1.414       .  A
C1069      C1074   1.408       .  A
C1070      C1071   1.398       .  A
C1070     Br1086   1.920       .  S
C1071      C1072   1.400       .  A
C1071      H1075   1.084       .  S
C1072      C1073   1.405       .  A
C1072      C1076   1.476       .  S
C1073      C1074   1.399       .  A
C1073     Br1085   1.918       .  S
C1074      H1077   1.083       .  S
C1076      C1078   1.401       .  A
C1076      C1082   1.406       .  A
C1078      C1079   1.401       .  A
C1078      H1083   1.084       .  S
C1079      C1080   1.413       .  A
C1079     Br1087   1.919       .  S
C1080      C1081   1.406       .  A
C1081      C1082   1.398       .  A
C1081      H1084   1.083       .  S
C1082     Br1088   1.919       .  S
C1089      C1090   1.415       .  A
C1089      C1094   1.405       .  A
C1090      C1091   1.398       .  A
C1090     Br1106   1.920       .  S
C1091      C1092   1.400       .  A
C1091      H1095   1.084       .  S
C1092      C1093   1.406       .  A
C1092      C1096   1.476       .  S
C1093      C1094   1.399       .  A
C1093     Br1105   1.918       .  S
C1094      H1097   1.083       .  S
C1096      C1098   1.402   1_455  A
C1096      C1102   1.408       .  A
C1098      C1099   1.400       .  A
C1098      H1103   1.083       .  S
C1099      C1100   1.411   1_655  A
C1099     Br1107   1.919       .  S
C1100      C1101   1.403       .  A
C1101      C1102   1.396       .  A
C1101      H1104   1.083       .  S
C1102     Br1108   1.920       .  S
C1109      C1110   1.409       .  A
C1109      C1114   1.403       .  A
C1110      C1111   1.401       .  A
C1110     Br1126   1.918       .  S
C1111      C1112   1.405       .  A
C1111      H1115   1.083       .  S
C1112      C1113   1.408       .  A
C1112      C1116   1.481       .  S
C1113      C1114   1.397       .  A
C1113     Br1125   1.919       .  S
C1114      H1117   1.084       .  S
C1116      C1118   1.404       .  A
C1116      C1122   1.409       .  A
C1118      C1119   1.398       .  A
C1118      H1123   1.084       .  S
C1119      C1120   1.409       .  A
C1119     Br1127   1.919       .  S
C1120      C1121   1.403       .  A
C1121      C1122   1.401       .  A
C1121      H1124   1.083       .  S
C1122     Br1128   1.918       .  S
C1129      C1130   1.413       .  A
C1129      C1134   1.405       .  A
C1130      C1131   1.399       .  A
C1130     Br1146   1.919   1_545  S
C1131      C1132   1.402       .  A
C1131      H1135   1.084       .  S
C1132      C1133   1.407       .  A
C1132      C1136   1.480       .  S
C1133      C1134   1.398       .  A
C1133     Br1145   1.919       .  S
C1134      H1137   1.083       .  S
C1136      C1138   1.401       .  A
C1136      C1142   1.408       .  A
C1138      C1139   1.398       .  A
C1138      H1143   1.084       .  S
C1139      C1140   1.414       .  A
C1139     Br1147   1.920       .  S
C1140      C1141   1.405       .  A
C1141      C1142   1.400       .  A
C1141      H1144   1.083       .  S
C1142     Br1148   1.919       .  S
C1149      C1150   1.417       .  A
C1149      C1154   1.408       .  A
C1150      C1151   1.400       .  A
C1150     Br1166   1.920       .  S
C1151      C1152   1.400       .  A
C1151      H1155   1.084       .  S
C1152      C1153   1.407       .  A
C1152      C1156   1.480       .  S
C1153      C1154   1.400       .  A
C1153     Br1165   1.919       .  S
C1154      H1157   1.083       .  S
C1156      C1158   1.403       .  A
C1156      C1162   1.407       .  A
C1158      C1159   1.400       .  A
C1158      H1163   1.084       .  S
C1159      C1160   1.411       .  A
C1159     Br1167   1.919       .  S
C1160      C1161   1.406       .  A
C1161      C1162   1.399       .  A
C1161      H1164   1.083       .  S
C1162     Br1168   1.919       .  S
C1169      C1170   1.409       .  A
C1169      C1174   1.404       .  A
C1170      C1171   1.400       .  A
C1170     Br1186   1.918       .  S
C1171      C1172   1.403       .  A
C1171      H1175   1.084       .  S
C1172      C1173   1.407       .  A
C1172      C1176   1.479       .  S
C1173      C1174   1.399       .  A
C1173     Br1185   1.919       .  S
C1174      H1177   1.084       .  S
C1176      C1178   1.402   1_455  A
C1176      C1182   1.409       .  A
C1178      C1179   1.401       .  A
C1178      H1183   1.083       .  S
C1179      C1180   1.412   1_655  A
C1179     Br1187   1.919       .  S
C1180      C1181   1.403       .  A
C1181      C1182   1.398       .  A
C1181      H1184   1.083       .  S
C1182     Br1188   1.920       .  S
C1189      C1190   1.409       .  A
C1189      C1194   1.403       .  A
C1190      C1191   1.399       .  A
C1190     Br1206   1.919       .  S
C1191      C1192   1.405       .  A
C1191      H1195   1.083       .  S
C1192      C1193   1.413       .  A
C1192      C1196   1.488       .  S
C1193      C1194   1.401       .  A
C1193     Br1205   1.920       .  S
C1194      H1197   1.084       .  S
C1196      C1198   1.405       .  A
C1196      C1202   1.412       .  A
C1198      C1199   1.401       .  A
C1198      H1203   1.083       .  S
C1199      C1200   1.410       .  A
C1199     Br1207   1.919       .  S
C1200      C1201   1.403       .  A
C1201      C1202   1.400       .  A
C1201      H1204   1.084       .  S
C1202     Br1208   1.921       .  S
C1209      C1210   1.412       .  A
C1209      C1214   1.405       .  A
C1210      C1211   1.396       .  A
C1210     Br1226   1.920       .  S
C1211      C1212   1.401       .  A
C1211      H1215   1.084       .  S
C1212      C1213   1.408       .  A
C1212      C1216   1.478       .  S
C1213      C1214   1.400       .  A
C1213     Br1225   1.919       .  S
C1214      H1217   1.083       .  S
C1216      C1218   1.402       .  A
C1216      C1222   1.408       .  A
C1218      C1219   1.399       .  A
C1218      H1223   1.084       .  S
C1219      C1220   1.413       .  A
C1219     Br1227   1.919       .  S
C1220      C1221   1.404       .  A
C1221      C1222   1.397       .  A
C1221      H1224   1.083       .  S
C1222     Br1228   1.919       .  S
C1229      C1230   1.415       .  A
C1229      C1234   1.406       .  A
C1230      C1231   1.395       .  A
C1230     Br1246   1.922       .  S
C1231      C1232   1.398       .  A
C1231      H1235   1.084       .  S
C1232      C1233   1.406       .  A
C1232      C1236   1.475       .  S
C1233      C1234   1.403       .  A
C1233     Br1245   1.917       .  S
C1234      H1237   1.083       .  S
C1236      C1238   1.402       .  A
C1236      C1242   1.403       .  A
C1238      C1239   1.402       .  A
C1238      H1243   1.084       .  S
C1239      C1240   1.416       .  A
C1239     Br1247   1.919       .  S
C1240      C1241   1.407       .  A
C1241      C1242   1.395       .  A
C1241      H1244   1.083       .  S
C1242     Br1248   1.919       .  S
C1249      C1250   1.415       .  A
C1249      C1254   1.407       .  A
C1250      C1251   1.399       .  A
C1250     Br1266   1.920       .  S
C1251      C1252   1.401       .  A
C1251      H1255   1.084       .  S
C1252      C1253   1.402       .  A
C1252      C1256   1.469       .  S
C1253      C1254   1.394       .  A
C1253     Br1265   1.918       .  S
C1254      H1257   1.083       .  S
C1256      C1258   1.401       .  A
C1256      C1262   1.403       .  A
C1258      C1259   1.399       .  A
C1258      H1263   1.084       .  S
C1259      C1260   1.412       .  A
C1259     Br1267   1.919       .  S
C1260      C1261   1.406       .  A
C1261      C1262   1.394       .  A
C1261      H1264   1.083       .  S
C1262     Br1268   1.919       .  S
C1269      C1270   1.414       .  A
C1269      C1274   1.404       .  A
C1270      C1271   1.400       .  A
C1270     Br1286   1.920       .  S
C1271      C1272   1.402       .  A
C1271      H1275   1.084       .  S
C1272      C1273   1.407       .  A
C1272      C1276   1.478       .  S
C1273      C1274   1.396       .  A
C1273     Br1285   1.919       .  S
C1274      H1277   1.083       .  S
C1276      C1278   1.403       .  A
C1276      C1282   1.408       .  A
C1278      C1279   1.398       .  A
C1278      H1283   1.084       .  S
C1279      C1280   1.411       .  A
C1279     Br1287   1.919       .  S
C1280      C1281   1.404       .  A
C1281      C1282   1.398       .  A
C1281      H1284   1.083       .  S
C1282     Br1288   1.919       .  S
C1289      C1290   1.410       .  A
C1289      C1294   1.405       .  A
C1290      C1291   1.402       .  A
C1290     Br1306   1.918       .  S
C1291      C1292   1.405       .  A
C1291      H1295   1.083       .  S
C1292      C1293   1.409       .  A
C1292      C1296   1.483       .  S
C1293      C1294   1.396       .  A
C1293     Br1305   1.921       .  S
C1294      H1297   1.083       .  S
C1296      C1298   1.402       .  A
C1296      C1302   1.410       .  A
C1298      C1299   1.396       .  A
C1298      H1303   1.084       .  S
C1299      C1300   1.411       .  A
C1299     Br1307   1.921       .  S
C1300      C1301   1.404       .  A
C1301      C1302   1.402       .  A
C1301      H1304   1.083       .  S
C1302     Br1308   1.919       .  S
C1309      C1310   1.416       .  A
C1309      C1314   1.406       .  A
C1310      C1311   1.398       .  A
C1310     Br1326   1.920       .  S
C1311      C1312   1.400       .  A
C1311      H1315   1.084       .  S
C1312      C1313   1.406       .  A
C1312      C1316   1.477       .  S
C1313      C1314   1.398       .  A
C1313     Br1325   1.919       .  S
C1314      H1317   1.083       .  S
C1316      C1318   1.401       .  A
C1316      C1322   1.408       .  A
C1318      C1319   1.398       .  A
C1318      H1323   1.084       .  S
C1319      C1320   1.413       .  A
C1319     Br1327   1.920       .  S
C1320      C1321   1.405       .  A
C1321      C1322   1.398       .  A
C1321      H1324   1.083       .  S
C1322     Br1328   1.919       .  S
C1329      C1330   1.410       .  A
C1329      C1334   1.401       .  A
C1330      C1331   1.402       .  A
C1330     Br1346   1.918       .  S
C1331      C1332   1.403       .  A
C1331      H1335   1.083       .  S
C1332      C1333   1.410       .  A
C1332      C1336   1.483       .  S
C1333      C1334   1.399       .  A
C1333     Br1345   1.919       .  S
C1334      H1337   1.084       .  S
C1336      C1338   1.402       .  A
C1336      C1342   1.410       .  A
C1338      C1339   1.399       .  A
C1338      H1343   1.084       .  S
C1339      C1340   1.412       .  A
C1339     Br1347   1.919       .  S
C1340      C1341   1.404       .  A
C1341      C1342   1.402       .  A
C1341      H1344   1.083       .  S
C1342     Br1348   1.919       .  S
C1349      C1350   1.415       .  A
C1349      C1354   1.407       .  A
C1350      C1351   1.396   1_565  A
C1350     Br1366   1.920       .  S
C1351      C1352   1.399       .  A
C1351      H1355   1.084       .  S
C1352      C1353   1.405       .  A
C1352      C1356   1.473       .  S
C1353      C1354   1.400   1_545  A
C1353     Br1365   1.918       .  S
C1354      H1357   1.083       .  S
C1356      C1358   1.401       .  A
C1356      C1362   1.406       .  A
C1358      C1359   1.399       .  A
C1358      H1363   1.084       .  S
C1359      C1360   1.412       .  A
C1359     Br1367   1.919       .  S
C1360      C1361   1.404       .  A
C1361      C1362   1.397       .  A
C1361      H1364   1.083       .  S
C1362     Br1368   1.919       .  S
C1369      C1370   1.411       .  A
C1369      C1374   1.403       .  A
C1370      C1371   1.399       .  A
C1370     Br1386   1.919       .  S
C1371      C1372   1.403       .  A
C1371      H1375   1.084       .  S
C1372      C1373   1.408       .  A
C1372      C1376   1.477       .  S
C1373      C1374   1.397       .  A
C1373     Br1385   1.920       .  S
C1374      H1377   1.084       .  S
C1376      C1378   1.402       .  A
C1376      C1382   1.406       .  A
C1378      C1379   1.399       .  A
C1378      H1383   1.084       .  S
C1379      C1380   1.414       .  A
C1379     Br1387   1.919       .  S
C1380      C1381   1.406       .  A
C1381      C1382   1.396       .  A
C1381      H1384   1.083       .  S
C1382     Br1388   1.920       .  S
C1389      C1390   1.414       .  A
C1389      C1394   1.406       .  A
C1390      C1391   1.397       .  A
C1390     Br1406   1.920       .  S
C1391      C1392   1.399       .  A
C1391      H1395   1.084       .  S
C1392      C1393   1.403       .  A
C1392      C1396   1.470       .  S
C1393      C1394   1.396       .  A
C1393     Br1405   1.918       .  S
C1394      H1397   1.084       .  S
C1396      C1398   1.399       .  A
C1396      C1402   1.404       .  A
C1398      C1399   1.396       .  A
C1398      H1403   1.084       .  S
C1399      C1400   1.414       .  A
C1399     Br1407   1.921       .  S
C1400      C1401   1.406       .  A
C1401      C1402   1.398       .  A
C1401      H1404   1.083       .  S
C1402     Br1408   1.918       .  S
C1409      C1410   1.412       .  A
C1409      C1414   1.405       .  A
C1410      C1411   1.400       .  A
C1410     Br1426   1.919       .  S
C1411      C1412   1.401       .  A
C1411      H1415   1.084       .  S
C1412      C1413   1.406       .  A
C1412      C1416   1.476       .  S
C1413      C1414   1.397       .  A
C1413     Br1425   1.919       .  S
C1414      H1417   1.083       .  S
C1416      C1418   1.399       .  A
C1416      C1422   1.406       .  A
C1418      C1419   1.398       .  A
C1418      H1423   1.084       .  S
C1419      C1420   1.416       .  A
C1419     Br1427   1.920       .  S
C1420      C1421   1.405       .  A
C1421      C1422   1.400       .  A
C1421      H1424   1.083       .  S
C1422     Br1428   1.918       .  S
C1429      C1430   1.409       .  A
C1429      C1434   1.403       .  A
C1430      C1431   1.398       .  A
C1430     Br1446   1.919       .  S
C1431      C1432   1.402       .  A
C1431      H1435   1.084       .  S
C1432      C1433   1.407       .  A
C1432      C1436   1.477       .  S
C1433      C1434   1.399       .  A
C1433     Br1445   1.918       .  S
C1434      H1437   1.084       .  S
C1436      C1438   1.401       .  A
C1436      C1442   1.410       .  A
C1438      C1439   1.399       .  A
C1438      H1443   1.083       .  S
C1439      C1440   1.410       .  A
C1439     Br1447   1.919       .  S
C1440      C1441   1.402       .  A
C1441      C1442   1.398       .  A
C1441      H1444   1.084       .  S
C1442     Br1448   1.920       .  S
C1449      C1450   1.413       .  A
C1449      C1454   1.406       .  A
C1450      C1451   1.399       .  A
C1450     Br1466   1.919       .  S
C1451      C1452   1.401       .  A
C1451      H1455   1.084       .  S
C1452      C1453   1.404       .  A
C1452      C1456   1.474       .  S
C1453      C1454   1.397       .  A
C1453     Br1465   1.918       .  S
C1454      H1457   1.083       .  S
C1456      C1458   1.401       .  A
C1456      C1462   1.405       .  A
C1458      C1459   1.397       .  A
C1458      H1463   1.084       .  S
C1459      C1460   1.411       .  A
C1459     Br1467   1.919       .  S
C1460      C1461   1.406       .  A
C1461      C1462   1.399       .  A
C1461      H1464   1.083       .  S
C1462     Br1468   1.918       .  S
C1469      C1470   1.415       .  A
C1469      C1474   1.407       .  A
C1470      C1471   1.401       .  A
C1470     Br1486   1.919       .  S
C1471      C1472   1.400       .  A
C1471      H1475   1.084       .  S
C1472      C1473   1.405       .  A
C1472      C1476   1.475       .  S
C1473      C1474   1.397       .  A
C1473     Br1485   1.919   1_554  S
C1474      H1477   1.083       .  S
C1476      C1478   1.402   1_554  A
C1476      C1482   1.406       .  A
C1478      C1479   1.399       .  A
C1478      H1483   1.084       .  S
C1479      C1480   1.409       .  A
C1479     Br1487   1.918       .  S
C1480      C1481   1.404   1_556  A
C1481      C1482   1.399       .  A
C1481      H1484   1.084       .  S
C1482     Br1488   1.918       .  S
C1489      C1490   1.412       .  A
C1489      C1494   1.404       .  A
C1490      C1491   1.401       .  A
C1490     Br1506   1.919       .  S
C1491      C1492   1.404       .  A
C1491      H1495   1.083       .  S
C1492      C1493   1.409       .  A
C1492      C1496   1.481       .  S
C1493      C1494   1.395       .  A
C1493     Br1505   1.921       .  S
C1494      H1497   1.083       .  S
C1496      C1498   1.403       .  A
C1496      C1502   1.409       .  A
C1498      C1499   1.396       .  A
C1498      H1503   1.084       .  S
C1499      C1500   1.411   1_556  A
C1499     Br1507   1.921       .  S
C1500      C1501   1.404       .  A
C1501      C1502   1.399   1_554  A
C1501      H1504   1.084       .  S
C1502     Br1508   1.919   1_556  S
C1509      C1510   1.412       .  A
C1509      C1514   1.404       .  A
C1510      C1511   1.398       .  A
C1510     Br1526   1.919       .  S
C1511      C1512   1.400       .  A
C1511      H1515   1.084       .  S
C1512      C1513   1.409       .  A
C1512      C1516   1.478       .  S
C1513      C1514   1.402       .  A
C1513     Br1525   1.919       .  S
C1514      H1517   1.083       .  S
C1516      C1518   1.402       .  A
C1516      C1522   1.407       .  A
C1518      C1519   1.399       .  A
C1518      H1523   1.084       .  S
C1519      C1520   1.410       .  A
C1519     Br1527   1.919       .  S
C1520      C1521   1.404       .  A
C1521      C1522   1.400       .  A
C1521      H1524   1.083       .  S
C1522     Br1528   1.917   1_455  S
C1529      C1530   1.413   1_556  A
C1529      C1534   1.405       .  A
C1530      C1531   1.399   1_554  A
C1530     Br1546   1.920       .  S
C1531      C1532   1.401       .  A
C1531      H1535   1.084   1_556  S
C1532      C1533   1.407       .  A
C1532      C1536   1.478       .  S
C1533      C1534   1.400       .  A
C1533     Br1545   1.918       .  S
C1534      H1537   1.083       .  S
C1536      C1538   1.401       .  A
C1536      C1542   1.406       .  A
C1538      C1539   1.400       .  A
C1538      H1543   1.084       .  S
C1539      C1540   1.414       .  A
C1539     Br1547   1.920       .  S
C1540      C1541   1.405       .  A
C1541      C1542   1.400       .  A
C1541      H1544   1.083       .  S
C1542     Br1548   1.918       .  S
C1549      C1550   1.416       .  A
C1549      C1554   1.405   1_455  A
C1550      C1551   1.401       .  A
C1550     Br1566   1.920       .  S
C1551      C1552   1.401   1_455  A
C1551      H1555   1.084       .  S
C1552      C1553   1.406       .  A
C1552      C1556   1.479       .  S
C1553      C1554   1.398       .  A
C1553     Br1565   1.919       .  S
C1554      H1557   1.083       .  S
C1556      C1558   1.402       .  A
C1556      C1562   1.405       .  A
C1558      C1559   1.402       .  A
C1558      H1563   1.084       .  S
C1559      C1560   1.416       .  A
C1559     Br1567   1.919       .  S
C1560      C1561   1.406       .  A
C1561      C1562   1.397       .  A
C1561      H1564   1.083       .  S
C1562     Br1568   1.919       .  S
C1569      C1570   1.408       .  A
C1569      C1574   1.403       .  A
C1570      C1571   1.397       .  A
C1570     Br1586   1.919       .  S
C1571      C1572   1.403       .  A
C1571      H1575   1.084       .  S
C1572      C1573   1.409       .  A
C1572      C1576   1.480       .  S
C1573      C1574   1.401       .  A
C1573     Br1585   1.919       .  S
C1574      H1577   1.083       .  S
C1576      C1578   1.402       .  A
C1576      C1582   1.408       .  A
C1578      C1579   1.399       .  A
C1578      H1583   1.084       .  S
C1579      C1580   1.413       .  A
C1579     Br1587   1.920       .  S
C1580      C1581   1.404       .  A
C1581      C1582   1.398       .  A
C1581      H1584   1.084       .  S
C1582     Br1588   1.919       .  S
C1589      C1590   1.411       .  A
C1589      C1594   1.404       .  A
C1590      C1591   1.402       .  A
C1590     Br1606   1.919       .  S
C1591      C1592   1.402       .  A
C1591      H1595   1.083       .  S
C1592      C1593   1.408       .  A
C1592      C1596   1.479       .  S
C1593      C1594   1.398       .  A
C1593     Br1605   1.919       .  S
C1594      H1597   1.083       .  S
C1596      C1598   1.402       .  A
C1596      C1602   1.407       .  A
C1598      C1599   1.400       .  A
C1598      H1603   1.084       .  S
C1599      C1600   1.411       .  A
C1599     Br1607   1.919   1_565  S
C1600      C1601   1.405       .  A
C1601      C1602   1.400       .  A
C1601      H1604   1.083       .  S
C1602     Br1608   1.918       .  S
C1609      C1610   1.411       .  A
C1609      C1614   1.405       .  A
C1610      C1611   1.399       .  A
C1610     Br1626   1.919       .  S
C1611      C1612   1.402       .  A
C1611      H1615   1.084       .  S
C1612      C1613   1.409       .  A
C1612      C1616   1.481       .  S
C1613      C1614   1.401       .  A
C1613     Br1625   1.919       .  S
C1614      H1617   1.083       .  S
C1616      C1618   1.403       .  A
C1616      C1622   1.408       .  A
C1618      C1619   1.399       .  A
C1618      H1623   1.084       .  S
C1619      C1620   1.410       .  A
C1619     Br1627   1.919       .  S
C1620      C1621   1.405       .  A
C1621      C1622   1.401       .  A
C1621      H1624   1.083       .  S
C1622     Br1628   1.918       .  S
C1629      C1630   1.412       .  A
C1629      C1634   1.406       .  A
C1630      C1631   1.401       .  A
C1630     Br1646   1.919       .  S
C1631      C1632   1.403       .  A
C1631      H1635   1.084       .  S
C1632      C1633   1.407       .  A
C1632      C1636   1.482       .  S
C1633      C1634   1.401       .  A
C1633     Br1645   1.919       .  S
C1634      H1637   1.083       .  S
C1636      C1638   1.403       .  A
C1636      C1642   1.411       .  A
C1638      C1639   1.400       .  A
C1638      H1643   1.083       .  S
C1639      C1640   1.409       .  A
C1639     Br1647   1.919       .  S
C1640      C1641   1.403       .  A
C1641      C1642   1.400       .  A
C1641      H1644   1.084       .  S
C1642     Br1648   1.919       .  S
C1649      C1650   1.410       .  A
C1649      C1654   1.403       .  A
C1650      C1651   1.402       .  A
C1650     Br1666   1.918       .  S
C1651      C1652   1.404       .  A
C1651      H1655   1.083       .  S
C1652      C1653   1.408       .  A
C1652      C1656   1.480       .  S
C1653      C1654   1.397       .  A
C1653     Br1665   1.919       .  S
C1654      H1657   1.083       .  S
C1656      C1658   1.402       .  A
C1656      C1662   1.407   1_545  A
C1658      C1659   1.400       .  A
C1658      H1663   1.084       .  S
C1659      C1660   1.415   1_545  A
C1659     Br1667   1.920       .  S
C1660      C1661   1.406       .  A
C1661      C1662   1.400       .  A
C1661      H1664   1.083       .  S
C1662     Br1668   1.918       .  S
C1669      C1670   1.412       .  A
C1669      C1674   1.407       .  A
C1670      C1671   1.400       .  A
C1670     Br1686   1.919       .  S
C1671      C1672   1.403       .  A
C1671      H1675   1.084       .  S
C1672      C1673   1.407       .  A
C1672      C1676   1.482       .  S
C1673      C1674   1.401       .  A
C1673     Br1685   1.918       .  S
C1674      H1677   1.083       .  S
C1676      C1678   1.403       .  A
C1676      C1682   1.407       .  A
C1678      C1679   1.401       .  A
C1678      H1683   1.084       .  S
C1679      C1680   1.411       .  A
C1679     Br1687   1.919       .  S
C1680      C1681   1.405       .  A
C1681      C1682   1.400       .  A
C1681      H1684   1.083       .  S
C1682     Br1688   1.918       .  S
C1689      C1690   1.415       .  A
C1689      C1694   1.405       .  A
C1690      C1691   1.400       .  A
C1690     Br1706   1.920       .  S
C1691      C1692   1.400       .  A
C1691      H1695   1.084       .  S
C1692      C1693   1.406       .  A
C1692      C1696   1.476       .  S
C1693      C1694   1.399       .  A
C1693     Br1705   1.919       .  S
C1694      H1697   1.083       .  S
C1696      C1698   1.400       .  A
C1696      C1702   1.406       .  A
C1698      C1699   1.399       .  A
C1698      H1703   1.084       .  S
C1699      C1700   1.413       .  A
C1699     Br1707   1.920       .  S
C1700      C1701   1.405       .  A
C1701      C1702   1.400       .  A
C1701      H1704   1.083       .  S
C1702     Br1708   1.918       .  S
C1709      C1710   1.415       .  A
C1709      C1714   1.407       .  A
C1710      C1711   1.403       .  A
C1710     Br1726   1.919       .  S
C1711      C1712   1.403       .  A
C1711      H1715   1.083       .  S
C1712      C1713   1.408       .  A
C1712      C1716   1.486       .  S
C1713      C1714   1.400       .  A
C1713     Br1725   1.919       .  S
C1714      H1717   1.083       .  S
C1716      C1718   1.404       .  A
C1716      C1722   1.410       .  A
C1718      C1719   1.401       .  A
C1718      H1723   1.084       .  S
C1719      C1720   1.410       .  A
C1719     Br1727   1.918       .  S
C1720      C1721   1.405       .  A
C1721      C1722   1.403       .  A
C1721      H1724   1.083       .  S
C1722     Br1728   1.919       .  S
