geometry optimzed in LAMMPS
_audit_creation_date              2020-12-01 
_audit_creation_method            'lammps2cif' 
_symmetry_space_group_name_H-M    'P1' 
_symmetry_Int_Tables_number       1 
_symmetry_cell_setting            triclinic 
loop_ 
_symmetry_equiv_pos_as_xyz 
  x,y,z 
_cell_length_a                    21.21469653 
_cell_length_b                    21.535687771240003 
_cell_length_c                    21.45130374278454 
_cell_angle_alpha                 90.1418116622685 
_cell_angle_beta                  89.04179166292836 
_cell_angle_gamma                 88.96270178525312 
loop_ 
_atom_site_label 
_atom_site_type_symbol 
_atom_site_fract_x 
_atom_site_fract_y 
_atom_site_fract_z 
_atom_site_charge 
O1          O  0.02238119  0.30301496  0.40782877    -0.73000
O2          O  0.97753973  0.29058099  0.58356842    -0.73200
O3          O  0.08517856  0.30224655  0.51538965    -0.73100
O4          O  0.91718792  0.29816627  0.47765199    -0.73100
O5          O  0.92520717  0.20189481  0.44908620    -0.73100
O6          O  0.08924649  0.20272071  0.52923526    -0.73100
O7          O  0.96770253  0.19208263  0.56611226    -0.73000
O8          O  0.04655918  0.20492061  0.41282404    -0.73200
V9          V  0.00115152  0.29714122  0.49615588     1.35200
V10         V  0.00714657  0.20154789  0.48967373     1.35200
C11         C  0.04104078  0.25306042  0.38069091     0.76200
C12         C  0.96076911  0.23720202  0.60267265     0.76300
C13         C  0.11566208  0.25543390  0.53323829     0.76100
C14         C  0.89363645  0.25308011  0.45038416     0.76100
C15         C  0.83016170  0.16432632  0.83273968    -0.03700
O16         O  0.52411591  0.91301125  0.78966657    -0.73000
O17         O  0.47654869  0.08637067  0.81080267    -0.73200
O18         O  0.41680698  0.97899847  0.80994695    -0.73100
O19         O  0.58489925  0.02028775  0.79638239    -0.73100
O20         O  0.57570486  0.04077632  0.69780761    -0.73100
O21         O  0.40655130  0.97655503  0.70945347    -0.73100
O22         O  0.45932147  0.08969292  0.71123801    -0.73000
O23         O  0.52277451  0.92774895  0.68973858    -0.73200
V24         V  0.50039025  0.99988504  0.79979752     1.35200
V25         V  0.49126983  0.00857982  0.70372918     1.35200
C26         C  0.53257448  0.89154971  0.73461560     0.76200
C27         C  0.45856540  0.11662232  0.76318144     0.76300
C28         C  0.38394374  0.96643123  0.76378674     0.76100
C29         C  0.60897144  0.03996796  0.74672125     0.76100
O30         O  0.47521875  0.91312888  0.20411782    -0.73000
O31         O  0.52177369  0.08735001  0.20646539    -0.73200
O32         O  0.58294963  0.97775521  0.21063480    -0.73100
O33         O  0.41438988  0.02326502  0.19322684    -0.73100
O34         O  0.40248514  0.03868318  0.29264497    -0.67500
O35         O  0.56958109  0.96593895  0.31049220    -0.73100
O36         O  0.51927501  0.08069315  0.30724684    -0.73000
O37         O  0.45174887  0.92456930  0.30223372    -0.73200
V38         V  0.49814554  0.00045356  0.20511907     1.35200
V39         V  0.48601881  0.00243190  0.30134831     1.35200
C40         C  0.45549433  0.88986903  0.25538693     0.76200
C41         C  0.53013650  0.11246807  0.25962440     0.76300
C42         C  0.60507946  0.96170573  0.26204970     0.76100
C43         C  0.37994595  0.04143977  0.23805222     0.76100
C44         C  0.66240453  0.33638778  0.32775826    -0.03700
O45         O  0.80971503  0.46717990  0.07889328    -0.73000
O46         O  0.80961215  0.53967265  0.91416472    -0.73200
O47         O  0.81533646  0.58190227  0.03142633    -0.73100
O48         O  0.81047433  0.42558189  0.96200490    -0.73100
O49         O  0.70903113  0.42124169  0.97467148    -0.73100
O50         O  0.71403356  0.59449619  0.02529540    -0.73100
O51         O  0.70768740  0.53125214  0.91579714    -0.73000
O52         O  0.70858672  0.48478821  0.08346086    -0.73200
V53         V  0.80940507  0.50382144  0.99668330     1.35200
V54         V  0.71142895  0.50799422  0.99963262     1.35200
C55         C  0.75765511  0.46505623  0.10919393     0.76200
C56         C  0.75715174  0.54509122  0.88651677     0.76300
C57         C  0.76762861  0.61637468  0.03885081     0.76100
C58         C  0.76128820  0.39457051  0.95950940     0.76100
C59         C  0.65990223  0.65852995  0.66173630    -0.03700
C60         C  0.83359587  0.84182905  0.17223930    -0.03700
O61         O  0.97945471  0.71464517  0.41737511    -0.73000
O62         O  0.04801659  0.69327347  0.58139432    -0.73200
O63         O  0.93317402  0.69161665  0.53136919    -0.73100
O64         O  0.09518165  0.71130206  0.46684835    -0.73100
O65         O  0.09132289  0.81057083  0.48568054    -0.73100
O66         O  0.91973071  0.79090884  0.54436915    -0.73100
O67         O  0.03349607  0.79241436  0.59659711    -0.73000
O68         O  0.97685471  0.81406334  0.43418895    -0.73200
V69         V  0.01371320  0.70465011  0.49952580     1.35200
V70         V  0.00550265  0.80015480  0.51487601     1.35200
C71         C  0.96681427  0.76928526  0.39825451     0.76200
C72         C  0.05210463  0.74061337  0.61646350     0.76300
C73         C  0.89808167  0.73629852  0.54821797     0.76100
C74         C  0.12187178  0.76275200  0.46625326     0.76100
C75         C  0.33664738  0.33438097  0.66928799    -0.03700
C76         C  0.15900064  0.83254069  0.84226163    -0.03700
C77         C  0.33942019  0.66315477  0.34079301    -0.03700
C78         C  0.15326618  0.16883041  0.15125388    -0.03700
O79         O  0.29404185  0.58422668  0.97772098    -0.73000
O80         O  0.30602344  0.41438118  0.03246515    -0.73200
O81         O  0.30191343  0.47329849  0.92428816    -0.73100
O82         O  0.30465132  0.52594071  0.08711671    -0.73100
O83         O  0.20337484  0.51863809  0.09865993    -0.73100
O84         O  0.19986154  0.47278885  0.92257780    -0.73100
O85         O  0.20369220  0.41180298  0.03063935    -0.73000
O86         O  0.19236633  0.57997569  0.99029500    -0.73200
V87         V  0.29950405  0.49952400  0.00569416     1.35200
V88         V  0.20148972  0.49594462  0.01059501     1.35200
C89         C  0.23994068  0.61042719  0.97486684     0.76200
C90         C  0.25543381  0.38403270  0.03822167     0.76300
C91         C  0.25285827  0.46421491  0.89438718     0.76100
C92         C  0.25690911  0.53049147  0.12194384     0.76100
C93         C  0.98816081  0.00105316  0.99865975    -0.03700
C94         C  0.49781878  0.49308378  0.50106804    -0.03700
C95         C  0.18520908  0.22840890  0.04946823    -0.14600
C96         C  0.19121364  0.21788119  0.11390933     0.07600
C97         C  0.23703805  0.25294688  0.14560143    -0.14600
C98         C  0.26704069  0.30276114  0.11722313    -0.14600
C99         C  0.25256287  0.31868517  0.05621891     0.07600
C100        C  0.21435334  0.27926642  0.02144130    -0.14600
H101        H  0.15637001  0.19981932  0.02062715     0.11500
H102        H  0.24587162  0.24497277  0.19449934     0.11500
H103        H  0.29569636  0.33287907  0.14517170     0.11500
H104        H  0.20300365  0.29084329  0.97373966     0.11500
C105        C  0.10849864  0.06173019  0.12008463    -0.14600
C106        C  0.10893142  0.12676576  0.11167858     0.07600
C107        C  0.06124386  0.15153133  0.07364941    -0.14600
C108        C  0.02224606  0.11263593  0.03854721    -0.14600
C109        C  0.02603082  0.04640119  0.04260424     0.07600
C110        C  0.06856928  0.02340646  0.08729611    -0.14600
H111        H  0.13851244  0.03880948  0.15344735     0.11500
H112        H  0.05515458  0.20138356  0.06968870     0.11500
H113        H  0.99012882  0.13608444  0.00765364     0.11500
H114        H  0.07687282  0.97508475  0.09465650     0.11500
C115        C  0.22519446  0.58375133  0.22425199    -0.14600
C116        C  0.26920538  0.55138756  0.18652852     0.07600
C117        C  0.33232920  0.54794888  0.20578759    -0.14600
C118        C  0.35299587  0.58328908  0.25510880    -0.14600
C119        C  0.31088075  0.62062749  0.29046558     0.07600
C120        C  0.24556786  0.61641408  0.27712452    -0.14600
H121        H  0.17605578  0.58622161  0.21147884     0.11500
H122        H  0.36763295  0.52155264  0.17935912     0.11500
H123        H  0.40303477  0.58308653  0.26429056     0.11500
H124        H  0.20990493  0.63984871  0.30532148     0.11500
C125        C  0.44720101  0.62173318  0.38365299    -0.14600
C126        C  0.38071902  0.61927734  0.38267310     0.07600
C127        C  0.35303029  0.57028638  0.41611190    -0.14600
C128        C  0.38925893  0.52996969  0.45321505    -0.14600
C129        C  0.45523370  0.53756942  0.46041553     0.07600
C130        C  0.48290423  0.58316186  0.42213859    -0.14600
H131        H  0.47333018  0.65194429  0.35305926     0.11500
H132        H  0.30280258  0.56293685  0.41306874     0.11500
H133        H  0.36461939  0.49177147  0.47424752     0.11500
H134        H  0.53299513  0.58756035  0.41801895     0.11500
C135        C  0.22884674  0.73554164  0.85605956    -0.14600
C136        C  0.18230223  0.77669752  0.88202861     0.07600
C137        C  0.15973328  0.76403407  0.94279847    -0.14600
C138        C  0.18255984  0.71223338  0.97543287    -0.14600
C139        C  0.22918812  0.67259355  0.94888299     0.07600
C140        C  0.25292623  0.68540821  0.88948501    -0.14600
H141        H  0.24774838  0.74291666  0.80960623     0.11500
H142        H  0.12312806  0.79243218  0.96474859     0.11500
H143        H  0.16200403  0.70161032  0.02064866     0.11500
H144        H  0.28703427  0.65418607  0.86715169     0.11500
C145        C  0.04715218  0.88446296  0.86958760    -0.14600
C146        C  0.11261963  0.87715014  0.87992305     0.07600
C147        C  0.13733847  0.91429638  0.92780112    -0.14600
C148        C  0.09976801  0.95644382  0.96246760    -0.14600
C149        C  0.03345584  0.95891166  0.95687979     0.07600
C150        C  0.00826292  0.92134942  0.90950017    -0.14600
H151        H  0.02450313  0.86223111  0.83126344     0.11500
H152        H  0.18713918  0.91207787  0.93777741     0.11500
H153        H  0.12454569  0.98634850  0.99339705     0.11500
H154        H  0.95798156  0.92268297  0.90153200     0.11500
C155        C  0.24281990  0.37291975  0.74251608    -0.14600
C156        C  0.30690610  0.37534634  0.72200989     0.07600
C157        C  0.34765643  0.41234272  0.75617004    -0.14600
C158        C  0.32574220  0.44782663  0.80580516    -0.14600
C159        C  0.26380929  0.44196841  0.82952554     0.07600
C160        C  0.22176091  0.40519828  0.79658398    -0.14600
H161        H  0.20987751  0.34304574  0.71966047     0.11500
H162        H  0.39736520  0.41407009  0.74397675     0.11500
H163        H  0.35984452  0.47631175  0.82901698     0.11500
H164        H  0.17425021  0.39869032  0.81427038     0.11500
C165        C  0.37146969  0.44018492  0.62156284    -0.14600
C166        C  0.37853954  0.37472048  0.62417331     0.07600
C167        C  0.41894188  0.34729658  0.57852339    -0.14600
C168        C  0.45739864  0.38368444  0.53928561    -0.14600
C169        C  0.45496364  0.44960154  0.54189306     0.07600
C170        C  0.40848808  0.47617670  0.58196385    -0.14600
H171        H  0.33599562  0.46477800  0.64917342     0.11500
H172        H  0.42197675  0.29721666  0.57427585     0.11500
H173        H  0.48842725  0.35917728  0.50689138     0.11500
H174        H  0.40115278  0.52610189  0.58307734     0.11500
C175        C  0.23153823  0.72730322  0.47545210    -0.14600
C176        C  0.18697944  0.76247077  0.44245896     0.07600
C177        C  0.19734432  0.77259958  0.37880734    -0.14600
C178        C  0.24774697  0.74266102  0.34756583    -0.14600
C179        C  0.28796012  0.70004898  0.37871772     0.07600
C180        C  0.28186234  0.69717762  0.44432129    -0.14600
H181        H  0.22410598  0.71843090  0.52471533     0.11500
H182        H  0.16293961  0.79845614  0.35202124     0.11500
H183        H  0.25265476  0.74927895  0.29771443     0.11500
H184        H  0.31418264  0.67031541  0.47221080     0.11500
C185        C  0.05052567  0.73914497  0.73280236    -0.14600
C186        C  0.08436913  0.74084159  0.67612134     0.07600
C187        C  0.14447887  0.76576757  0.67504200    -0.14600
C188        C  0.16767090  0.79501485  0.72740185    -0.14600
C189        C  0.13146414  0.80068684  0.78348143     0.07600
C190        C  0.07564973  0.76569709  0.78675620    -0.14600
H191        H  0.00366782  0.72003054  0.73466931     0.11500
H192        H  0.17162843  0.76732738  0.63180513     0.11500
H193        H  0.21489009  0.81244407  0.72289578     0.11500
H194        H  0.05005719  0.76103142  0.83050655     0.11500
C195        C  0.90383021  0.86290804  0.26425866    -0.14600
C196        C  0.87368174  0.81849234  0.22758390     0.07600
C197        C  0.87669132  0.75565718  0.24737151    -0.14600
C198        C  0.90950688  0.73840032  0.30110938    -0.14600
C199        C  0.93910206  0.78346114  0.33693149     0.07600
C200        C  0.93660088  0.84567159  0.31721094    -0.14600
H201        H  0.90134802  0.91164793  0.25199210     0.11500
H202        H  0.85162071  0.71976322  0.22340330     0.11500
H203        H  0.90941425  0.69039863  0.31602624     0.11500
H204        H  0.95858870  0.88189089  0.34387987     0.11500
C205        C  0.94015994  0.87933191  0.12448481    -0.14600
C206        C  0.87357859  0.88242042  0.12634646     0.07600
C207        C  0.84484729  0.91347195  0.07622172    -0.14600
C208        C  0.88048379  0.94772471  0.03285385    -0.14600
C209        C  0.94667699  0.95467022  0.03863089     0.07600
C210        C  0.97519716  0.91214323  0.07998130    -0.14600
H211        H  0.96595850  0.84838570  0.15484154     0.11500
H212        H  0.79438629  0.91066439  0.07025464     0.11500
H213        H  0.85512528  0.96636935  0.99384287     0.11500
H214        H  0.02447609  0.90019607  0.07580270     0.11500
C215        C  0.81778833  0.65831976  0.57370841    -0.14600
C216        C  0.83447708  0.72118263  0.57217395     0.07600
C217        C  0.79181861  0.76583442  0.59615721    -0.14600
C218        C  0.73400263  0.74745362  0.62241675    -0.14600
C219        C  0.71746032  0.68376790  0.62476970     0.07600
C220        C  0.76133048  0.64004675  0.60037584    -0.14600
H221        H  0.84941636  0.62214707  0.55597436     0.11500
H222        H  0.80389234  0.81447469  0.59640911     0.11500
H223        H  0.70462781  0.78332895  0.64366994     0.11500
H224        H  0.75215745  0.59079207  0.60322238     0.11500
C225        C  0.53153883  0.54217376  0.61009533    -0.14600
C226        C  0.54115946  0.53412883  0.54458757     0.07600
C227        C  0.59389787  0.56535726  0.51945526    -0.14600
C228        C  0.63003290  0.60607680  0.55501632    -0.14600
C229        C  0.61922157  0.61473957  0.61986008     0.07600
C230        C  0.56777963  0.58290838  0.64578166    -0.14600
H231        H  0.49699594  0.51706724  0.63632927     0.11500
H232        H  0.60926130  0.55734069  0.47185693     0.11500
H233        H  0.66645315  0.63069050  0.53021254     0.11500
H234        H  0.55674291  0.58803422  0.69503519     0.11500
C235        C  0.84238868  0.69614502  0.07114003    -0.14600
C236        C  0.77912255  0.67901577  0.06447683     0.07600
C237        C  0.73145818  0.71950967  0.08677286    -0.14600
C238        C  0.74738855  0.77397895  0.11894368    -0.14600
C239        C  0.81129192  0.78721874  0.13164180     0.07600
C240        C  0.85802637  0.74867513  0.10407061    -0.14600
H241        H  0.88095394  0.66740416  0.05302814     0.11500
H242        H  0.68234839  0.70840749  0.08083210     0.11500
H243        H  0.70932656  0.80451873  0.13440973     0.11500
H244        H  0.90751924  0.75764053  0.11048146     0.11500
C245        C  0.75954151  0.63076122  0.80941626    -0.14600
C246        C  0.74971384  0.56818123  0.82251599     0.07600
C247        C  0.71511905  0.53271791  0.78053267    -0.14600
C248        C  0.68760079  0.55998888  0.72815700    -0.14600
C249        C  0.69154655  0.62450055  0.71766029     0.07600
C250        C  0.73135186  0.65835996  0.75758444    -0.14600
H251        H  0.78490153  0.65941732  0.84174527     0.11500
H252        H  0.70672902  0.48414495  0.79007799     0.11500
H253        H  0.66272857  0.52996015  0.69708707     0.11500
H254        H  0.73828950  0.70747918  0.75010822     0.11500
C255        C  0.71197634  0.46957838  0.21575994    -0.14600
C256        C  0.74971959  0.43756393  0.17147225     0.07600
C257        C  0.76231717  0.37429905  0.18018110    -0.14600
C258        C  0.73420151  0.34287300  0.23018587    -0.14600
C259        C  0.69197586  0.37357672  0.27264631     0.07600
C260        C  0.68440421  0.43848387  0.26613928    -0.14600
H261        H  0.70121011  0.51853314  0.20953691     0.11500
H262        H  0.79001102  0.34822867  0.14586938     0.11500
H263        H  0.74372137  0.29352750  0.23468261     0.11500
H264        H  0.65682202  0.46603012  0.29901164     0.11500
C265        C  0.52638629  0.44367405  0.39198028    -0.14600
C266        C  0.54058236  0.45257579  0.45578761     0.07600
C267        C  0.59373433  0.42008433  0.47817520    -0.14600
C268        C  0.63231267  0.38316964  0.43853803    -0.14600
C269        C  0.62085062  0.37800187  0.37364557     0.07600
C270        C  0.56555845  0.40756602  0.35215951    -0.14600
H271        H  0.48430187  0.46377039  0.37201891     0.11500
H272        H  0.60496293  0.42245609  0.52717211     0.11500
H273        H  0.67019130  0.35767048  0.46031314     0.11500
H274        H  0.55253855  0.40253673  0.30382651     0.11500
C275        C  0.40751295  0.78622188  0.22493416    -0.14600
C276        C  0.43845837  0.82447745  0.26719034     0.07600
C277        C  0.44369513  0.80484061  0.32937978    -0.14600
C278        C  0.41233116  0.75354862  0.35107501    -0.14600
C279        C  0.37967367  0.71485331  0.31056149     0.07600
C280        C  0.37898685  0.73118859  0.24628067    -0.14600
H281        H  0.40200969  0.80054778  0.17696275     0.11500
H282        H  0.46819793  0.83236527  0.36337886     0.11500
H283        H  0.41279618  0.74431812  0.40070341     0.11500
H284        H  0.35275922  0.70445886  0.21317265     0.11500
C285        C  0.73569578  0.84478026  0.24452003    -0.14600
C286        C  0.77770834  0.87738270  0.20476035     0.07600
C287        C  0.76896496  0.94228350  0.20078102    -0.14600
C288        C  0.71566343  0.97144107  0.22763928    -0.14600
C289        C  0.67028691  0.93719268  0.26053661     0.07600
C290        C  0.68203873  0.87401819  0.27103515    -0.14600
H291        H  0.74237754  0.79537025  0.25174325     0.11500
H292        H  0.80207944  0.97099935  0.17590133     0.11500
H293        H  0.70740645  0.02041613  0.21878302     0.11500
H294        H  0.64727021  0.84623945  0.29511534     0.11500
C295        C  0.29872699  0.06318183  0.15984741    -0.14600
C296        C  0.31670303  0.06659160  0.22253139     0.07600
C297        C  0.27710373  0.09857129  0.26521593    -0.14600
C298        C  0.22181150  0.12870385  0.24456424    -0.14600
C299        C  0.20602749  0.12816309  0.18048487     0.07600
C300        C  0.24573988  0.09446442  0.13911859    -0.14600
H301        H  0.32744056  0.03858344  0.12527191     0.11500
H302        H  0.29002493  0.10231402  0.31367714     0.11500
H303        H  0.19406217  0.15521579  0.27830167     0.11500
H304        H  0.23613412  0.09357785  0.08966301     0.11500
C305        C  0.57832364  0.21426766  0.22443197    -0.14600
C306        C  0.55369123  0.17584263  0.27103033     0.07600
C307        C  0.55622281  0.19581656  0.33355228    -0.14600
C308        C  0.58880584  0.24826084  0.34994556    -0.14600
C309        C  0.61928584  0.28423507  0.30457570     0.07600
C310        C  0.60942057  0.26900410  0.24095733    -0.14600
H311        H  0.57538409  0.20117197  0.17581786     0.11500
H312        H  0.53587379  0.16892261  0.37117955     0.11500
H313        H  0.59305341  0.25896797  0.39904528     0.11500
H314        H  0.62720845  0.29743894  0.20350804     0.11500
C315        C  0.55838397  0.80775228  0.65700486    -0.14600
C316        C  0.55470774  0.82692345  0.71986956     0.07600
C317        C  0.57524171  0.78517838  0.76558753    -0.14600
C318        C  0.60402507  0.72814308  0.74827785    -0.14600
C319        C  0.61555712  0.71272012  0.68458490     0.07600
C320        C  0.58756579  0.75152537  0.63979091    -0.14600
H321        H  0.54112106  0.83760295  0.62025167     0.11500
H322        H  0.57093606  0.79735877  0.81449560     0.11500
H323        H  0.61894709  0.69774805  0.78536285     0.11500
H324        H  0.59266149  0.74053620  0.59064369     0.11500
C325        C  0.27475654  0.86524728  0.85204107    -0.14600
C326        C  0.21615337  0.87321330  0.82306688     0.07600
C327        C  0.21180749  0.91887199  0.77555115    -0.14600
C328        C  0.26630542  0.94815206  0.75218839    -0.14600
C329        C  0.32504886  0.93406182  0.77819903     0.07600
C330        C  0.32800433  0.89293431  0.82857654    -0.14600
H331        H  0.28068147  0.83697729  0.89314246     0.11500
H332        H  0.16681080  0.92913175  0.75444764     0.11500
H333        H  0.26243192  0.98207955  0.71523331     0.11500
H334        H  0.37225314  0.88284237  0.85138753     0.11500
C335        C  0.47029922  0.22542746  0.73082879    -0.14600
C336        C  0.43542828  0.18131938  0.76406938     0.07600
C337        C  0.37103560  0.19266928  0.77461909    -0.14600
C338        C  0.34093521  0.24354495  0.74664296    -0.14600
C339        C  0.37393146  0.28339625  0.70548125     0.07600
C340        C  0.44029168  0.27659981  0.70310454    -0.14600
H341        H  0.52025014  0.21753189  0.72197658     0.11500
H342        H  0.34278691  0.15886340  0.79917985     0.11500
H343        H  0.29044156  0.24895741  0.75328289     0.11500
H344        H  0.46961031  0.30909781  0.67845100     0.11500
C345        C  0.74114976  0.23961498  0.87831245    -0.14600
C346        C  0.80539632  0.21957483  0.87329761     0.07600
C347        C  0.84961224  0.25210650  0.90798358    -0.14600
C348        C  0.83213559  0.30479444  0.94130437    -0.14600
C349        C  0.77036769  0.32954435  0.93881322     0.07600
C350        C  0.72413906  0.29522970  0.90932701    -0.14600
H351        H  0.70372372  0.21447346  0.85691611     0.11500
H352        H  0.89886668  0.23789273  0.90743468     0.11500
H353        H  0.86884520  0.32874568  0.96574514     0.11500
H354        H  0.67592076  0.31247635  0.90795220     0.11500
C355        C  0.76460613  0.06470587  0.81824178    -0.14600
C356        C  0.77490848  0.12773519  0.80463647     0.07600
C357        C  0.73633118  0.15604657  0.75883515    -0.14600
C358        C  0.68566875  0.12483896  0.73294930    -0.14600
C359        C  0.67299654  0.06410338  0.75126999     0.07600
C360        C  0.71443737  0.03363026  0.79199276    -0.14600
H361        H  0.79389384  0.03893328  0.85011838     0.11500
H362        H  0.74398630  0.20372152  0.74511734     0.11500
H363        H  0.65365228  0.14977560  0.70272126     0.11500
H364        H  0.70521815  0.98659863  0.80704242     0.11500
C365        C  0.93490125  0.10232005  0.85853088    -0.14600
C366        C  0.87282321  0.12224369  0.87531153     0.07600
C367        C  0.85186163  0.10681784  0.93604177    -0.14600
C368        C  0.89019017  0.07241257  0.97642719    -0.14600
C369        C  0.94675252  0.04292502  0.95508016     0.07600
C370        C  0.96994024  0.06237051  0.89646092    -0.14600
H371        H  0.95840235  0.11719435  0.81650161     0.11500
H372        H  0.80647115  0.12372782  0.95333552     0.11500
H373        H  0.87444905  0.06756834  0.02437369     0.11500
H374        H  0.01673670  0.04869256  0.88027283     0.11500
C375        C  0.81834876  0.33120099  0.41191885    -0.14600
C376        C  0.83361970  0.26756619  0.41858195     0.07600
C377        C  0.79254801  0.22382400  0.39425810    -0.14600
C378        C  0.73638544  0.24409277  0.36559985    -0.14600
C379        C  0.72042169  0.30854607  0.36146305     0.07600
C380        C  0.76373580  0.35097999  0.38402268    -0.14600
H381        H  0.84917379  0.36725619  0.42793337     0.11500
H382        H  0.80368341  0.17467624  0.39726747     0.11500
H383        H  0.70689167  0.20904873  0.34580804     0.11500
H384        H  0.75492961  0.40053661  0.38004967     0.11500
C385        C  0.21709328  0.22390733  0.58910289    -0.14600
C386        C  0.17825165  0.26820030  0.56015086     0.07600
C387        C  0.19654559  0.33075052  0.56107508    -0.14600
C388        C  0.24726258  0.34977473  0.59512829    -0.14600
C389        C  0.28474458  0.30714837  0.62785930     0.07600
C390        C  0.27115890  0.24301357  0.62105973    -0.14600
H391        H  0.20524702  0.17523320  0.58803659     0.11500
H392        H  0.16942766  0.36686130  0.53813963     0.11500
H393        H  0.25563610  0.39908218  0.59765382     0.11500
H394        H  0.30063860  0.20732048  0.64129905     0.11500
C395        C  0.07147702  0.16187184  0.23776160    -0.14600
C396        C  0.11092057  0.20018234  0.20221228     0.07600
C397        C  0.11175276  0.26439250  0.21848641    -0.14600
C398        C  0.08498536  0.28558332  0.27531420    -0.14600
C399        C  0.05259923  0.24401521  0.31343620     0.07600
C400        C  0.04089085  0.18415152  0.29070439    -0.14600
H401        H  0.06703670  0.11309088  0.22710052     0.11500
H402        H  0.13598430  0.29805875  0.19027683     0.11500
H403        H  0.09288093  0.33263230  0.29086863     0.11500
H404        H  0.01336976  0.15166264  0.31789141     0.11500
C405        C  0.91953615  0.16068062  0.67706463    -0.14600
C406        C  0.93204137  0.22331629  0.66415049     0.07600
C407        C  0.91256930  0.26872894  0.70745954    -0.14600
C408        C  0.88068291  0.25133590  0.76256658    -0.14600
C409        C  0.86835153  0.18789992  0.77552061     0.07600
C410        C  0.88756087  0.14365762  0.73055987    -0.14600
H411        H  0.93333757  0.12377146  0.64499182     0.11500
H412        H  0.92049112  0.31737494  0.69809680     0.11500
H413        H  0.86473499  0.28819306  0.79345706     0.11500
H414        H  0.87808453  0.09483337  0.73736567     0.11500
loop_ 
_geom_bond_atom_site_label_1 
_geom_bond_atom_site_label_2 
_geom_bond_distance 
_geom_bond_site_symmetry_2 
_ccdc_geom_bond_type 
O1            V9   1.945       .  S
O1           C11   1.275       .  A
O2            V9   1.939   1_655  S
O2           C12   1.276       .  A
O3            V9   1.842       .  S
O3           C13   1.252       .  A
O4            V9   1.831   1_655  S
O4           C14   1.249       .  A
O5           V10   1.957   1_655  S
O5           C14   1.279       .  A
O6           V10   1.951       .  S
O6           C13   1.278       .  A
O7           V10   1.842   1_655  S
O7           C12   1.252       .  A
O8           V10   1.838       .  S
O8           C11   1.251       .  A
V9           V10   2.064       .  T
C11         C399   1.471       .  S
C12         C406   1.477       .  S
C13         C386   1.487       .  S
C14         C376   1.483       .  S
C15         C346   1.551       .  S
C15         C356   1.553       .  S
C15         C366   1.574       .  S
C15         C409   1.551       .  S
O16          V24   1.939       .  S
O16          C26   1.276       .  A
O17          V24   1.934   1_545  S
O17          C27   1.273       .  A
O18          V24   1.847       .  S
O18          C28   1.252       .  A
O19          V24   1.854   1_545  S
O19          C29   1.252       .  A
O20          V25   1.935       .  S
O20          C29   1.274       .  A
O21          V25   1.939   1_565  S
O21          C28   1.274       .  A
O22          V25   1.868       .  S
O22          C27   1.255       .  A
O23          V25   1.875   1_565  S
O23          C26   1.258       .  A
V24          V25   2.082   1_565  T
C26         C316   1.492       .  S
C27         C336   1.469       .  S
C28         C329   1.470       .  S
C29         C359   1.468       .  S
O30          V38   1.951   1_565  S
O30          C40   1.277       .  A
O31          V38   1.946       .  S
O31          C41   1.277       .  A
O32          V38   1.862   1_565  S
O32          C42   1.253       .  A
O33          V38   1.857       .  S
O33          C43   1.255       .  A
O34          V39   1.936       .  S
O34          C43   1.273       .  A
O35          V39   1.939   1_565  S
O35          C42   1.275       .  A
O36          V39   1.844       .  S
O36          C41   1.251       .  A
O37          V39   1.840   1_565  S
O37          C40   1.251       .  A
V38          V39   2.076       .  T
C40         C276   1.482       .  S
C41         C306   1.483       .  S
C42         C289   1.472       .  S
C43         C296   1.481       .  S
C44         C259   1.559       .  S
C44         C269   1.577       .  S
C44         C309   1.548       .  S
C44         C379   1.550       .  S
O45          V53   1.934   1_554  S
O45          C55   1.274       .  A
O46          V53   1.933       .  S
O46          C56   1.273       .  A
O47          V53   1.845   1_554  S
O47          C57   1.252       .  A
O48          V53   1.840       .  S
O48          C58   1.251       .  A
O49          V54   1.944       .  S
O49          C58   1.276       .  A
O50          V54   1.943   1_554  S
O50          C57   1.276       .  A
O51          V54   1.871       .  S
O51          C56   1.255       .  A
O52          V54   1.868   1_554  S
O52          C55   1.254       .  A
V53          V54   2.079       .  T
C55         C256   1.471       .  S
C56         C246   1.471       .  S
C57         C236   1.481       .  S
C58         C349   1.476       .  S
C59         C219   1.552       .  S
C59         C229   1.579       .  S
C59         C249   1.562       .  S
C59         C319   1.559       .  S
C60         C196   1.551       .  S
C60         C206   1.567       .  S
C60         C239   1.547       .  S
C60         C286   1.554       .  S
O61          V69   1.928   1_655  S
O61          C71   1.273       .  A
O62          V69   1.927       .  S
O62          C72   1.271       .  A
O63          V69   1.856   1_655  S
O63          C73   1.255       .  A
O64          V69   1.862       .  S
O64          C74   1.253       .  A
O65          V70   1.933       .  S
O65          C74   1.272       .  A
O66          V70   1.930   1_655  S
O66          C73   1.273       .  A
O67          V70   1.867       .  S
O67          C72   1.255       .  A
O68          V70   1.867   1_655  S
O68          C71   1.256       .  A
V69          V70   2.086       .  T
C71         C199   1.480       .  S
C72         C186   1.461       .  S
C73         C216   1.478       .  S
C74         C176   1.464       .  S
C75         C156   1.551       .  S
C75         C166   1.576       .  S
C75         C339   1.558       .  S
C75         C389   1.549       .  S
C76         C136   1.554       .  S
C76         C146   1.575       .  S
C76         C189   1.561       .  S
C76         C326   1.559       .  S
C77         C119   1.552       .  S
C77         C126   1.571       .  S
C77         C179   1.556       .  S
C77         C279   1.552       .  S
C78          C96   1.555       .  S
C78         C106   1.575       .  S
C78         C299   1.550       .  S
C78         C396   1.549       .  S
O79          V87   1.924   1_556  S
O79          C89   1.272       .  A
O80          V87   1.926       .  S
O80          C90   1.271       .  A
O81          V87   1.834   1_556  S
O81          C91   1.250       .  A
O82          V87   1.841       .  S
O82          C92   1.251       .  A
O83          V88   1.951       .  S
O83          C92   1.278       .  A
O84          V88   1.953   1_556  S
O84          C91   1.278       .  A
O85          V88   1.863       .  S
O85          C90   1.254       .  A
O86          V88   1.870   1_556  S
O86          C89   1.254       .  A
V87          V88   2.083       .  T
C89         C139   1.467       .  S
C90          C99   1.462       .  S
C91         C159   1.484       .  S
C92         C116   1.484       .  S
C93         C109   1.593   1_656  S
C93         C149   1.577   1_645  S
C93         C209   1.587   1_546  S
C93         C369   1.569       .  S
C94         C129   1.579       .  S
C94         C169   1.574       .  S
C94         C226   1.598       .  S
C94         C266   1.570       .  S
C95          C96   1.409       .  A
C95         C100   1.400       .  A
C95         H101   1.077       .  S
C96          C97   1.423       .  A
C97          C98   1.393       .  A
C97         H102   1.082       .  S
C98          C99   1.392       .  A
C98         H103   1.084       .  S
C99         C100   1.406       .  A
C100        H104   1.084   1_554  S
C105        C106   1.413       .  A
C105        C110   1.391       .  A
C105        H111   1.080       .  S
C106        C107   1.408       .  A
C107        C108   1.413       .  A
C107        H112   1.083       .  S
C108        C109   1.430       .  A
C108        H113   1.078   1_455  S
C109        C110   1.412       .  A
C110        H114   1.065   1_545  S
C115        C116   1.400       .  A
C115        C120   1.411       .  A
C115        H121   1.083       .  S
C116        C117   1.409       .  A
C117        C118   1.384       .  A
C117        H122   1.084       .  S
C118        C119   1.403       .  A
C118        H123   1.083       .  S
C119        C120   1.424       .  A
C120        H124   1.078       .  S
C125        C126   1.413       .  A
C125        C130   1.395       .  A
C125        H131   1.079       .  S
C126        C127   1.409       .  A
C127        C128   1.406       .  A
C127        H132   1.083       .  S
C128        C129   1.423       .  A
C128        H133   1.078       .  S
C129        C130   1.411       .  A
C130        H134   1.071       .  S
C135        C136   1.421       .  A
C135        C140   1.392       .  A
C135        H141   1.081       .  S
C136        C137   1.410       .  A
C137        C138   1.402       .  A
C137        H142   1.081       .  S
C138        C139   1.407       .  A
C138        H143   1.083   1_556  S
C139        C140   1.392       .  A
C140        H144   1.084       .  S
C145        C146   1.416       .  A
C145        C150   1.412       .  A
C145        H151   1.075       .  S
C146        C147   1.414       .  A
C147        C148   1.401       .  A
C147        H152   1.082       .  S
C148        C149   1.414       .  A
C148        H153   1.074       .  S
C149        C150   1.415       .  A
C150        H154   1.083   1_455  S
C155        C156   1.424       .  A
C155        C160   1.413       .  A
C155        H161   1.081       .  S
C156        C157   1.401       .  A
C157        C158   1.379       .  A
C157        H162   1.084       .  S
C158        C159   1.409       .  A
C158        H163   1.084       .  S
C159        C160   1.402       .  A
C160        H164   1.083       .  S
C165        C166   1.416       .  A
C165        C170   1.394       .  A
C165        H171   1.080       .  S
C166        C167   1.412       .  A
C167        C168   1.411       .  A
C167        H172   1.083       .  S
C168        C169   1.421       .  A
C168        H173   1.079       .  S
C169        C170   1.410       .  A
C170        H174   1.084       .  S
C175        C176   1.403       .  A
C175        C180   1.398       .  A
C175        H181   1.084       .  S
C176        C177   1.398       .  A
C177        C178   1.399       .  A
C177        H182   1.083       .  S
C178        C179   1.418       .  A
C178        H183   1.083       .  S
C179        C180   1.413       .  A
C180        H184   1.079       .  S
C185        C186   1.403       .  A
C185        C190   1.407       .  A
C185        H191   1.083       .  S
C186        C187   1.392       .  A
C187        C188   1.388       .  A
C187        H192   1.084       .  S
C188        C189   1.420       .  A
C188        H193   1.079       .  S
C189        C190   1.416       .  A
C190        H194   1.082       .  S
C195        C196   1.406       .  A
C195        C200   1.389       .  A
C195        H201   1.083       .  S
C196        C197   1.420       .  A
C197        C198   1.404       .  A
C197        H202   1.080       .  S
C198        C199   1.400       .  A
C198        H203   1.083       .  S
C199        C200   1.406       .  A
C200        H204   1.083       .  S
C205        C206   1.413       .  A
C205        C210   1.401       .  A
C205        H211   1.081       .  S
C206        C207   1.409       .  A
C207        C208   1.408       .  A
C207        H212   1.083       .  S
C208        C209   1.422       .  A
C208        H213   1.077   1_554  S
C209        C210   1.412       .  A
C210        H214   1.074   1_655  S
C215        C216   1.406       .  A
C215        C220   1.383       .  A
C215        H221   1.083       .  S
C216        C217   1.400       .  A
C217        C218   1.405       .  A
C217        H222   1.083       .  S
C218        C219   1.423       .  A
C218        H223   1.079       .  S
C219        C220   1.406       .  A
C220        H224   1.084       .  S
C225        C226   1.426       .  A
C225        C230   1.410       .  A
C225        H231   1.071       .  S
C226        C227   1.415       .  A
C227        C228   1.407       .  A
C227        H232   1.079       .  S
C228        C229   1.417       .  A
C228        H233   1.079       .  S
C229        C230   1.407       .  A
C230        H234   1.083       .  S
C235        C236   1.408       .  A
C235        C240   1.381       .  A
C235        H241   1.083       .  S
C236        C237   1.401       .  A
C237        C238   1.409       .  A
C237        H242   1.083       .  S
C238        C239   1.421       .  A
C238        H243   1.080       .  S
C239        C240   1.404       .  A
C240        H244   1.082       .  S
C245        C246   1.396       .  A
C245        C250   1.400       .  A
C245        H251   1.083       .  S
C246        C247   1.404       .  A
C247        C248   1.400       .  A
C247        H252   1.084       .  S
C248        C249   1.412       .  A
C248        H253   1.078       .  S
C249        C250   1.422       .  A
C250        H254   1.083       .  S
C255        C256   1.404       .  A
C255        C260   1.398       .  A
C255        H261   1.084       .  S
C256        C257   1.397       .  A
C257        C258   1.400       .  A
C257        H262   1.083       .  S
C258        C259   1.420       .  A
C258        H263   1.083       .  S
C259        C260   1.412       .  A
C260        H264   1.078       .  S
C265        C266   1.420       .  A
C265        C270   1.405       .  A
C265        H271   1.080       .  S
C266        C267   1.408       .  A
C267        C268   1.405       .  A
C267        H272   1.083       .  S
C268        C269   1.422       .  A
C268        H273   1.079       .  S
C269        C270   1.409       .  A
C270        H274   1.083       .  S
C275        C276   1.403       .  A
C275        C280   1.414       .  A
C275        H281   1.083       .  S
C276        C277   1.406       .  A
C277        C278   1.378       .  A
C277        H282   1.084       .  S
C278        C279   1.403       .  A
C278        H283   1.084       .  S
C279        C280   1.424       .  A
C280        H284   1.081       .  S
C285        C286   1.420       .  A
C285        C290   1.402       .  A
C285        H291   1.083       .  S
C286        C287   1.410       .  A
C287        C288   1.398       .  A
C287        H292   1.080       .  S
C288        C289   1.405       .  A
C288        H293   1.084   1_565  S
C289        C290   1.398       .  A
C290        H294   1.083       .  S
C295        C296   1.406       .  A
C295        C300   1.381       .  A
C295        H301   1.083       .  S
C296        C297   1.403       .  A
C297        C298   1.409       .  A
C297        H302   1.083       .  S
C298        C299   1.420       .  A
C298        H303   1.081       .  S
C299        C300   1.405       .  A
C300        H304   1.084       .  S
C305        C306   1.400       .  A
C305        C310   1.409       .  A
C305        H311   1.083       .  S
C306        C307   1.410       .  A
C307        C308   1.383       .  A
C307        H312   1.083       .  S
C308        C309   1.402       .  A
C308        H313   1.083       .  S
C309        C310   1.423       .  A
C310        H314   1.079       .  S
C315        C316   1.410       .  A
C315        C320   1.396       .  A
C315        H321   1.083       .  S
C316        C317   1.402       .  A
C317        C318   1.408       .  A
C317        H322   1.083       .  S
C318        C319   1.421       .  A
C318        H323   1.079       .  S
C319        C320   1.407       .  A
C320        H324   1.083       .  S
C325        C326   1.407       .  A
C325        C330   1.375       .  A
C325        H331   1.080       .  S
C326        C327   1.421       .  A
C327        C328   1.412       .  A
C327        H332   1.083       .  S
C328        C329   1.402       .  A
C328        H333   1.083       .  S
C329        C330   1.400       .  A
C330        H334   1.085       .  S
C335        C336   1.403       .  A
C335        C340   1.401       .  A
C335        H341   1.084       .  S
C336        C337   1.398       .  A
C337        C338   1.400       .  A
C337        H342   1.083       .  S
C338        C339   1.418       .  A
C338        H343   1.082       .  S
C339        C340   1.413       .  A
C340        H344   1.078       .  S
C345        C346   1.424       .  A
C345        C350   1.407       .  A
C345        H351   1.077       .  S
C346        C347   1.403       .  A
C347        C348   1.381       .  A
C347        H352   1.083       .  S
C348        C349   1.408       .  A
C348        H353   1.084       .  S
C349        C350   1.397       .  A
C350        H354   1.083       .  S
C355        C356   1.409       .  A
C355        C360   1.393       .  A
C355        H361   1.079       .  S
C356        C357   1.421       .  A
C357        C358   1.400       .  A
C357        H362   1.083       .  S
C358        C359   1.396       .  A
C358        H363   1.083       .  S
C359        C360   1.405       .  A
C360        H364   1.084   1_545  S
C365        C366   1.418       .  A
C365        C370   1.398       .  A
C365        H371   1.075       .  S
C366        C367   1.412       .  A
C367        C368   1.402       .  A
C367        H372   1.083       .  S
C368        C369   1.416       .  A
C368        H373   1.082   1_556  S
C369        C370   1.410       .  A
C370        H374   1.082   1_655  S
C375        C376   1.411       .  A
C375        C380   1.374       .  A
C375        H381   1.083       .  S
C376        C377   1.400       .  A
C377        C378   1.412       .  A
C377        H382   1.083       .  S
C378        C379   1.426       .  A
C378        H383   1.080       .  S
C379        C380   1.399       .  A
C380        H384   1.084       .  S
C385        C386   1.402       .  A
C385        C390   1.413       .  A
C385        H391   1.083       .  S
C386        C387   1.409       .  A
C387        C388   1.378       .  A
C387        H392   1.083       .  S
C388        C389   1.401       .  A
C388        H393   1.081       .  S
C389        C390   1.424       .  A
C390        H394   1.079       .  S
C395        C396   1.403       .  A
C395        C400   1.379       .  A
C395        H401   1.081       .  S
C396        C397   1.426       .  A
C397        C398   1.408       .  A
C397        H402   1.078       .  S
C398        C399   1.396       .  A
C398        H403   1.083       .  S
C399        C400   1.405       .  A
C400        H404   1.084       .  S
C405        C406   1.407       .  A
C405        C410   1.377       .  A
C405        H411   1.083       .  S
C406        C407   1.399       .  A
C407        C408   1.407       .  A
C407        H412   1.083       .  S
C408        C409   1.423       .  A
C408        H413   1.079       .  S
C409        C410   1.404       .  A
C410        H414   1.084       .  S
