geometry optimzed in LAMMPS
_audit_creation_date              2020-12-01 
_audit_creation_method            'lammps2cif' 
_symmetry_space_group_name_H-M    'P1' 
_symmetry_Int_Tables_number       1 
_symmetry_cell_setting            triclinic 
loop_ 
_symmetry_equiv_pos_as_xyz 
  x,y,z 
_cell_length_a                    50.50846551 
_cell_length_b                    56.503816745629 
_cell_length_c                    53.97078286154001 
_cell_angle_alpha                 89.5417607537617 
_cell_angle_beta                  90.27914190189745 
_cell_angle_gamma                 89.965094329198 
loop_ 
_atom_site_label 
_atom_site_type_symbol 
_atom_site_fract_x 
_atom_site_fract_y 
_atom_site_fract_z 
_atom_site_charge 
C1          C  0.08835370  0.66977417  0.93314365     0.03400
C2          C  0.07806026  0.68064262  0.91194365    -0.12800
C3          C  0.05126330  0.67859938  0.90542854     0.00900
C4          C  0.03466952  0.66365550  0.91962656    -0.11300
C5          C  0.04472945  0.65194386  0.94091111     0.03300
C6          C  0.07161908  0.65556844  0.94769990    -0.10700
H7          H  0.09088920  0.69200579  0.90103781     0.08900
H8          H  0.01379044  0.66242579  0.91516919     0.06500
H9          H  0.07945962  0.64769133  0.96457758     0.06300
C10         C  0.87292371  0.68362176  0.93162380     0.03400
C11         C  0.88885786  0.67036907  0.94813120    -0.12800
C12         C  0.91105048  0.65731878  0.93972457     0.00900
C13         C  0.91735434  0.65849410  0.91411223    -0.11300
C14         C  0.90106069  0.67144841  0.89739014     0.03300
C15         C  0.87871701  0.68315165  0.90637303    -0.10700
H16         H  0.88402246  0.67050425  0.96765666     0.08900
H17         H  0.93483293  0.64964259  0.90724527     0.06500
H18         H  0.86617475  0.69286365  0.89349490     0.06300
C19         C  0.90679039  0.67040438  0.14864012     0.03400
C20         C  0.92268026  0.65722793  0.13200728    -0.12800
C21         C  0.91386328  0.65320934  0.10728031     0.00900
C22         C  0.88910211  0.66279182  0.09982641    -0.11300
C23         C  0.87349024  0.67602901  0.11615739     0.03300
C24         C  0.88246611  0.67941808  0.14037572    -0.10700
H25         H  0.94178723  0.65063508  0.13808695     0.08900
H26         H  0.88181552  0.65997688  0.08117078     0.06500
H27         H  0.87080896  0.69019585  0.15280281     0.06300
C28         C  0.04465454  0.67740035  0.14183476     0.03400
C29         C  0.02980680  0.66302607  0.12575197    -0.12800
C30         C  0.04135354  0.65452880  0.10376438     0.00900
C31         C  0.06733221  0.66223927  0.09755979    -0.11300
C32         C  0.08241251  0.67625998  0.11400913     0.03300
C33         C  0.07144185  0.68143802  0.13709162    -0.10700
H34         H  0.00895628  0.66011615  0.12927226     0.08900
H35         H  0.07515100  0.65827655  0.07943750     0.06500
H36         H  0.08263433  0.69193015  0.15021562     0.06300
C37         C  0.90697949  0.52603300  0.14835733     0.03400
C38         C  0.88431381  0.51442799  0.13987838    -0.12800
C39         C  0.87696526  0.51460335  0.11493679     0.06900
C40         C  0.89233658  0.52779468  0.09804675    -0.11300
C41         C  0.91499616  0.54071307  0.10590241     0.03300
C42         C  0.92246716  0.53930238  0.13134602    -0.10700
H43         H  0.87245531  0.50448773  0.15303719     0.08900
H44         H  0.88670255  0.52775729  0.07867161     0.06500
H45         H  0.94009148  0.54827339  0.13783441     0.06300
C46         C  0.86932307  0.52189590  0.92990776     0.03400
C47         C  0.87901544  0.51830801  0.90603944    -0.12800
C48         C  0.90546581  0.52283146  0.90021151     0.00900
C49         C  0.92083603  0.53687719  0.91637864    -0.11300
C50         C  0.91022570  0.54406603  0.93944827     0.03300
C51         C  0.88490832  0.53530764  0.94642267    -0.10700
H52         H  0.86697688  0.50886025  0.89269151     0.08900
H53         H  0.94124198  0.54079936  0.91184416     0.06500
H54         H  0.87786708  0.53818160  0.96505224     0.06300
C55         C  0.07183651  0.51458141  0.92801231     0.03400
C56         C  0.05744603  0.52876961  0.94452843    -0.12800
C57         C  0.03479639  0.54179896  0.93673166     0.00900
C58         C  0.02629461  0.53965187  0.91172594    -0.11300
C59         C  0.04035516  0.52493088  0.89517251     0.03300
C60         C  0.06316737  0.51319403  0.90343906    -0.10700
H61         H  0.06375332  0.52932999  0.96370590     0.08900
H62         H  0.00861272  0.54873647  0.90536402     0.06500
H63         H  0.07406586  0.50238422  0.89046899     0.06300
C64         C  0.05283282  0.52143163  0.13985201     0.03400
C65         C  0.03533876  0.53471458  0.12462571    -0.12800
C66         C  0.04429011  0.54435842  0.10191449     0.00900
C67         C  0.07070618  0.54021045  0.09456585    -0.11300
C68         C  0.08832806  0.52764895  0.10989799     0.03300
C69         C  0.07943604  0.51926897  0.13275455    -0.10700
H70         H  0.01465007  0.53624804  0.12952849     0.08900
H71         H  0.07753511  0.54643045  0.07665325     0.06500
H72         H  0.09299673  0.50917529  0.14434133     0.06300
O73         O  0.03275749  0.64222680  0.98151635    -0.75100
O74         O  0.00725677  0.62648919  0.95069549    -0.54000
C75         C  0.02695657  0.63920434  0.95858607     0.78700
O76         O  0.03033659  0.55242401  0.06115437    -0.59700
O77         O  0.00841417  0.57114125  0.09240188    -0.52700
C78         C  0.02618993  0.55668982  0.08421321     0.70700
O79         O  0.02586647  0.55189773  0.97847673    -0.74200
O80         O  0.00300253  0.57214337  0.94851913    -0.54800
C81         C  0.02012397  0.55632054  0.95557653     0.76700
O82         O  0.03046688  0.64519031  0.06243770    -0.59400
O83         O  0.00757153  0.62593049  0.09290857    -0.52500
C84         C  0.02533488  0.64089229  0.08534351     0.73300
Zr85       Zr  0.01457785  0.63343108  0.02180568     2.54700
O86         O  0.06257676  0.63661864  0.02451257    -0.79900
O87         O  0.00737393  0.67595478  0.01841569    -0.93400
Zr88       Zr  0.01397248  0.56403277  0.02039129     2.64700
O89         O  0.06208594  0.56441345  0.01744919    -0.98300
O90         O  0.01020387  0.52106990  0.02140353    -0.80400
O91         O  0.01442349  0.59928582  0.99643339    -0.83700
O92         O  0.01540981  0.59820707  0.04569546    -2.18400
O93         O  0.92465204  0.64502578  0.06535043    -0.67100
O94         O  0.94766344  0.62485204  0.09530883    -0.51700
C95         C  0.93001881  0.64018343  0.08829531     0.71700
O96         O  0.92101594  0.55379849  0.98091567    -0.60000
O97         O  0.94403551  0.57278854  0.95027424    -0.52000
C98         C  0.92624845  0.55787621  0.95790009     0.73500
O99         O  0.92434550  0.55143877  0.06402871    -0.71400
O100        O  0.94799621  0.57013562  0.09423605    -0.50100
C101        C  0.93030905  0.55502154  0.08700745     0.74800
O102        O  0.92270059  0.64712430  0.98134600    -0.66800
O103        O  0.94461723  0.62809884  0.95036069    -0.53900
C104        C  0.92733675  0.64325328  0.95818131     0.73200
Zr105      Zr  0.93726135  0.63435126  0.02288794     2.77500
O106        O  0.88904132  0.63413019  0.02309698    -0.97500
O107        O  0.93975119  0.67735398  0.02425132    -0.78300
Zr108      Zr  0.93657110  0.56480749  0.02221817     2.70100
O109        O  0.88841653  0.56531440  0.02366794    -0.79600
O110        O  0.94016393  0.52187801  0.02059878    -0.98700
Zr111      Zr  0.97479195  0.60008664  0.97184392     2.21500
Zr112      Zr  0.97693880  0.59829282  0.07163263     2.11100
O113        O  0.93699872  0.59912314  0.04721094    -2.47300
O114        O  0.93615808  0.60001091  0.99777500    -0.79400
O115        O  0.97654041  0.63393477  0.04724842    -0.71600
O116        O  0.97456182  0.56463138  0.99658656    -2.32500
O117        O  0.97550864  0.63480384  0.99735390    -2.28700
O118        O  0.97600235  0.56364938  0.04617653    -0.73300
H119        H  0.03138787  0.59807113  0.05560330     0.78700
H120        H  0.97400367  0.55083145  0.98613889     0.79800
H121        H  0.92162348  0.59894746  0.05781173     0.82000
H122        H  0.97567389  0.64895486  0.98716433     0.79600
H123        H  0.99611833  0.51736707  0.00922164     0.42600
H124        H  0.94852924  0.51723547  0.03654175     0.41600
H125        H  0.88336904  0.58042546  0.01552035     0.41300
H126        H  0.88422710  0.62258301  0.03620769     0.39200
H127        H  0.92143656  0.68249808  0.02787889     0.42300
H128        H  0.02421157  0.68227961  0.01178259     0.37100
H129        H  0.06881614  0.62007513  0.02628103     0.43200
H130        H  0.06820119  0.57318022  0.03221799     0.39700
H131        H  0.88401385  0.64969224  0.02995769     0.44600
H132        H  0.00682757  0.68155652  0.03573708     0.43300
H133        H  0.06746953  0.54781769  0.02069820     0.43400
H134        H  0.92168648  0.51617978  0.02190611     0.43800
C135        C  0.54700452  0.00919497  0.13508334     0.03400
C136        C  0.53395727  0.02500539  0.11889782    -0.12800
C137        C  0.52588438  0.01798298  0.09487749     0.00900
C138        C  0.53126367  0.99448087  0.08734454    -0.11300
C139        C  0.54464165  0.97859036  0.10351323     0.03300
C140        C  0.55219888  0.98623104  0.12708872    -0.10700
H141        H  0.53031269  0.04291179  0.12505296     0.08900
H142        H  0.52595840  0.98883160  0.06884745     0.06500
H143        H  0.56370213  0.97444665  0.13889993     0.06300
C144        C  0.55656976  0.01017773  0.93081010     0.03400
C145        C  0.55582300  0.98617236  0.93708751    -0.12800
C146        C  0.54327913  0.97804993  0.95856336     0.00900
C147        C  0.52989761  0.99437401  0.97378432    -0.11300
C148        C  0.52920562  0.01874953  0.96736988     0.03300
C149        C  0.54294881  0.02635614  0.94583889    -0.10700
H150        H  0.56646240  0.97364404  0.92572227     0.08900
H151        H  0.52068741  0.98818632  0.99071655     0.06500
H152        H  0.54377442  0.04499365  0.94109897     0.06300
C153        C  0.54839016  0.21837196  0.95937899     0.03400
C154        C  0.53398963  0.20245804  0.97465863    -0.12800
C155        C  0.53167100  0.17820989  0.96807134     0.00900
C156        C  0.54359387  0.17067111  0.94570834    -0.11300
C157        C  0.55790117  0.18646476  0.93056241     0.03300
C158        C  0.56083771  0.20981235  0.93820791    -0.10700
H159        H  0.52506099  0.20881623  0.99154898     0.08900
H160        H  0.54160460  0.15246246  0.93987634     0.06500
H161        H  0.57346559  0.22162115  0.92762903     0.06300
C162        C  0.54987734  0.21569894  0.09895783     0.03400
C163        C  0.53459463  0.20039949  0.08407474    -0.12800
C164        C  0.53120986  0.17646241  0.09116874     0.00900
C165        C  0.54311055  0.16844143  0.11357142    -0.11300
C166        C  0.55817605  0.18368560  0.12851188     0.03300
C167        C  0.56129106  0.20719195  0.12095233    -0.10700
H168        H  0.52634106  0.20685714  0.06673838     0.08900
H169        H  0.54095095  0.15015666  0.11939330     0.06500
H170        H  0.57411660  0.21875685  0.13154814     0.06300
C171        C  0.39316611  0.21541196  0.95493871     0.03400
C172        C  0.40678143  0.20028939  0.97169028    -0.12800
C173        C  0.41269638  0.17671708  0.96478921     0.00900
C174        C  0.40397692  0.16868333  0.94125374    -0.11300
C175        C  0.39100956  0.18394938  0.92449744     0.03300
C176        C  0.38770416  0.20755240  0.93095137    -0.10700
H177        H  0.41126897  0.20630599  0.99024347     0.08900
H178        H  0.40651763  0.15031812  0.93619393     0.06500
H179        H  0.37811715  0.21949700  0.91786178     0.06300
C180        C  0.39822432  0.01034379  0.92291096     0.03400
C181        C  0.40984912  0.02588547  0.93997010    -0.12800
C182        C  0.41658236  0.01835538  0.96427783     0.00900
C183        C  0.41184478  0.99435397  0.97101920    -0.11300
C184        C  0.40084067  0.97847903  0.95354376     0.03300
C185        C  0.39423020  0.98678415  0.92984575    -0.10700
H186        H  0.41391740  0.04388655  0.93415751     0.08900
H187        H  0.41642937  0.98814678  0.98958342     0.06500
H188        H  0.38491438  0.97481090  0.91682528     0.06300
C189        C  0.39109163  0.01126569  0.13289342     0.03400
C190        C  0.38540573  0.98844889  0.12483824    -0.12800
C191        C  0.39377867  0.98050297  0.10168767     0.00900
C192        C  0.40772226  0.99613091  0.08586452    -0.11300
C193        C  0.41323069  0.01950734  0.09339844     0.03300
C194        C  0.40496763  0.02673692  0.11717525    -0.10700
H195        H  0.37338325  0.97702267  0.13644292     0.08900
H196        H  0.41354659  0.99032186  0.06760506     0.06500
H197        H  0.40928054  0.04446188  0.12355013     0.06300
C198        C  0.38821133  0.21472853  0.09701758     0.03400
C199        C  0.38567013  0.20894049  0.12218018    -0.12800
C200        C  0.39540981  0.18766085  0.13190248     0.00900
C201        C  0.40906611  0.17225398  0.11608533    -0.11300
C202        C  0.41281841  0.17786861  0.09078297     0.03300
C203        C  0.40252638  0.19942668  0.08137475    -0.10700
H204        H  0.37457521  0.22065661  0.13405109     0.08900
H205        H  0.41643893  0.15559527  0.12343967     0.06500
H206        H  0.40443827  0.20367309  0.06185825     0.06300
O207        O  0.51784543  0.05788686  0.08294505    -0.75100
O208        O  0.49907768  0.02900510  0.05934872    -0.54000
C209        C  0.51340647  0.03595954  0.07783560     0.78700
O210        O  0.42063569  0.13812243  0.07971020    -0.59700
O211        O  0.44130359  0.16695077  0.05702351    -0.52700
C212        C  0.42566609  0.15998597  0.07453818     0.70700
O213        O  0.42156303  0.05900083  0.08128312    -0.74200
O214        O  0.44148803  0.02984005  0.05899999    -0.54800
C215        C  0.42632767  0.03708338  0.07666105     0.76700
O216        O  0.52200113  0.13708207  0.07970658    -0.59400
O217        O  0.50060254  0.16636277  0.05813703    -0.52500
C218        C  0.51694589  0.15903769  0.07513298     0.73300
Zr219      Zr  0.50974194  0.09761161  0.06596711     2.54700
O220        O  0.51271331  0.09960224  0.11093389    -0.79900
O221        O  0.55762952  0.09509513  0.06150306    -0.93400
Zr222      Zr  0.43180922  0.09836524  0.06539005     2.64700
O223        O  0.43099210  0.09745341  0.11055301    -0.98300
O224        O  0.38380190  0.09780289  0.06128578    -0.80400
O225        O  0.47057240  0.07475275  0.06604333    -0.83700
O226        O  0.47096284  0.12134461  0.06574915    -2.18400
O227        O  0.52248344  0.13823822  0.97951261    -0.67100
O228        O  0.50095926  0.16721444  0.00069107    -0.51700
C229        C  0.51743959  0.16023113  0.98395147     0.71700
O230        O  0.42340455  0.05816924  0.97679380    -0.60000
O231        O  0.44253719  0.02905299  0.00031569    -0.52000
C232        C  0.42815378  0.03616788  0.98182168     0.73500
O233        O  0.42076080  0.13741882  0.97790215    -0.71400
O234        O  0.44169646  0.16670469  0.99931841    -0.50100
C235        C  0.42582892  0.15937897  0.98206622     0.74800
O236        O  0.52043109  0.05865237  0.97828734    -0.66800
O237        O  0.50002909  0.02967578  0.00087568    -0.53900
C238        C  0.51559452  0.03671434  0.98330068     0.73200
Zr239      Zr  0.51041840  0.09821251  0.99376006     2.77500
O240        O  0.51572064  0.09777173  0.94891164    -0.97500
O241        O  0.55777548  0.09709301  0.00220992    -0.78300
Zr242      Zr  0.43206116  0.09790039  0.99301093     2.70100
O243        O  0.42825399  0.09895935  0.94804597    -0.79600
O244        O  0.38423266  0.09645005  0.99820749    -0.98700
Zr245      Zr  0.47073516  0.05077537  0.02972471     2.21500
Zr246      Zr  0.47102962  0.14548976  0.02891820     2.11100
O247        O  0.47118882  0.12124025  0.99259130    -2.47300
O248        O  0.47126293  0.07500142  0.99318664    -0.79400
O249        O  0.51058944  0.12190112  0.02979043    -0.71600
O250        O  0.43106174  0.07425411  0.02945176    -2.32500
O251        O  0.51057588  0.07394733  0.02992009    -2.28700
O252        O  0.43134609  0.12206886  0.02885487    -0.73300
H253        H  0.47103898  0.13107977  0.08037789     0.78700
H254        H  0.41551142  0.06428375  0.02942179     0.79800
H255        H  0.47134852  0.13092007  0.97776122     0.82000
H256        H  0.52600392  0.06382669  0.03016708     0.79600
H257        H  0.37726171  0.10292395  0.07765780     0.42600
H258        H  0.37927200  0.11266537  0.00324210     0.41600
H259        H  0.44667132  0.10104774  0.94221945     0.41300
H260        H  0.50433703  0.11078488  0.94261291     0.39200
H261        H  0.56598991  0.09494573  0.98576518     0.42300
H262        H  0.56215637  0.07857003  0.06606802     0.37100
H263        H  0.49436512  0.10280968  0.11634045     0.43200
H264        H  0.44308571  0.11028455  0.11576902     0.39700
H265        H  0.53406006  0.10328236  0.94600363     0.44600
H266        H  0.56477315  0.10465607  0.07529740     0.43300
H267        H  0.41310594  0.10311905  0.11504322     0.43400
H268        H  0.37717307  0.09495559  0.98114307     0.43800
C269        C  0.08692612  0.01396108  0.60202364     0.03400
C270        C  0.07110422  0.02998410  0.58854136    -0.12800
C271        C  0.04491572  0.02407962  0.58166684     0.00900
C272        C  0.03496075  0.00146547  0.58806873    -0.11300
C273        C  0.05091476  0.98529879  0.60148852     0.03300
C274        C  0.07643910  0.99200518  0.60865660    -0.10700
H275        H  0.07921854  0.04706190  0.58338866     0.08900
H276        H  0.01485730  0.99666669  0.58316151     0.06500
H277        H  0.08814658  0.98012471  0.62018197     0.06300
C278        C  0.87160785  0.01621218  0.60403657     0.03400
C279        C  0.88793564  0.03124904  0.59006295    -0.12800
C280        C  0.91262798  0.02346443  0.58076393     0.00900
C281        C  0.92063532  0.99976312  0.58590612    -0.11300
C282        C  0.90421084  0.98467985  0.60032473     0.03300
C283        C  0.87997866  0.99314097  0.60893474    -0.10700
H284        H  0.88133655  0.04924468  0.58671081     0.08900
H285        H  0.93970984  0.99345253  0.57969133     0.06500
H286        H  0.86797888  0.98180648  0.62068420     0.06300
C287        C  0.90717448  0.22358471  0.59909598     0.03400
C288        C  0.92189939  0.20742979  0.58469798    -0.12800
C289        C  0.91637779  0.18279381  0.58590193     0.00900
C290        C  0.89616013  0.17488621  0.60216444    -0.11300
C291        C  0.88175815  0.19088411  0.61671073     0.03300
C292        C  0.88707818  0.21501053  0.61446970    -0.10700
H293        H  0.93741682  0.21398232  0.57270895     0.08900
H294        H  0.89171607  0.15619510  0.60384860     0.06500
H295        H  0.87560422  0.22741923  0.62525768     0.06300
C296        C  0.05102360  0.22229131  0.60369232     0.03400
C297        C  0.03397356  0.20692317  0.59020863    -0.12800
C298        C  0.04127703  0.18289893  0.58633505     0.00900
C299        C  0.06485452  0.17437543  0.59755489    -0.11300
C300        C  0.08156152  0.18938693  0.61084354     0.03300
C301        C  0.07565984  0.21341190  0.61166213    -0.10700
H302        H  0.01486147  0.21311674  0.58375780     0.08900
H303        H  0.07011759  0.15583007  0.59648240     0.06500
H304        H  0.08983489  0.22500999  0.62055714     0.06300
C305        C  0.90484038  0.22446696  0.45291231     0.03400
C306        C  0.88229100  0.21563876  0.44103258    -0.12800
C307        C  0.87727638  0.19133694  0.43995177     0.00900
C308        C  0.89434719  0.17578071  0.45279445    -0.11300
C309        C  0.91620953  0.18407391  0.46677702     0.03300
C310        C  0.92173488  0.20872594  0.46617853    -0.10700
H311        H  0.86943856  0.22787277  0.43111670     0.08900
H312        H  0.89084474  0.15695401  0.45141183     0.06500
H313        H  0.93928207  0.21551894  0.47526379     0.06300
C314        C  0.87409082  0.01192639  0.44960175     0.03400
C315        C  0.89003308  0.02890315  0.46137646    -0.12800
C316        C  0.91594493  0.02325464  0.46954636     0.00900
C317        C  0.92583673  0.00007810  0.46516471    -0.11300
C318        C  0.90988452  0.98315383  0.45292006     0.03300
C319        C  0.88430096  0.98938310  0.44549204    -0.10700
H320        H  0.88210864  0.04648307  0.46429066     0.08900
H321        H  0.94578226  0.99539045  0.47079658     0.06500
H322        H  0.87251846  0.97665968  0.43529422     0.06300
C323        C  0.08752468  0.01636124  0.45057272     0.03400
C324        C  0.07576441  0.99792681  0.43747641    -0.12800
C325        C  0.04847696  0.99349385  0.43861409     0.00900
C326        C  0.03267643  0.00716383  0.45476272    -0.11300
C327        C  0.04421593  0.02575132  0.46860184     0.03300
C328        C  0.07163153  0.03022492  0.46607886    -0.10700
H329        H  0.08783953  0.98769825  0.42493278     0.08900
H330        H  0.01147006  0.00439280  0.45535305     0.06500
H331        H  0.08053673  0.04498556  0.47573641     0.06300
C332        C  0.05382011  0.22335046  0.45552596     0.03400
C333        C  0.07805152  0.21563903  0.44606623    -0.12800
C334        C  0.08584215  0.19199827  0.44746910     0.00900
C335        C  0.06947477  0.17584928  0.46007341    -0.11300
C336        C  0.04560885  0.18327812  0.47136319     0.03300
C337        C  0.03785648  0.20721533  0.46885886    -0.10700
H338        H  0.09046030  0.22804927  0.43607778     0.08900
H339        H  0.07510643  0.15736714  0.46063527     0.06500
H340        H  0.01918849  0.21306159  0.47647290     0.06300
O341        O  0.03401528  0.06497218  0.47935250    -0.75100
O342        O  0.00937068  0.03572989  0.49741029    -0.54000
C343        C  0.02793989  0.04305895  0.48276722     0.78700
O344        O  0.02918370  0.14356045  0.57683433    -0.59700
O345        O  0.00770736  0.17299324  0.55569800    -0.52700
C346        C  0.02461845  0.16560662  0.57211247     0.70700
O347        O  0.03343368  0.06400038  0.57373220    -0.74200
O348        O  0.00970396  0.03528529  0.55397286    -0.54800
C349        C  0.02815479  0.04217580  0.56891512     0.76700
O350        O  0.03394978  0.14360845  0.47981854    -0.59400
O351        O  0.01044552  0.17237616  0.49945616    -0.52500
C352        C  0.02872447  0.16542728  0.48441085     0.73300
Zr353      Zr  0.01923431  0.10423668  0.49165166     2.54700
O354        O  0.06710619  0.10411755  0.49726962    -0.79900
O355        O  0.02048611  0.10581222  0.44655441    -0.93400
Zr356      Zr  0.01659924  0.10362062  0.56425490     2.64700
O357        O  0.06464488  0.10519238  0.56845506    -0.98300
O358        O  0.00959249  0.10101713  0.60881312    -0.80400
O359        O  0.01850253  0.08038770  0.52785419    -0.83700
O360        O  0.01822969  0.12748330  0.52798084    -2.18400
O361        O  0.92837152  0.14425786  0.47603885    -0.67100
O362        O  0.94961077  0.17327731  0.49754041    -0.51700
C363        C  0.93276915  0.16625934  0.48098237     0.71700
O364        O  0.92416602  0.06318620  0.57140136    -0.60000
O365        O  0.94871801  0.03430295  0.55317262    -0.52000
C366        C  0.92979074  0.04123821  0.56749654     0.73500
O367        O  0.92620336  0.14292189  0.57519554    -0.71400
O368        O  0.94878864  0.17214536  0.55493373    -0.50100
C369        C  0.93152729  0.16494156  0.57096927     0.74800
O370        O  0.92668607  0.06376044  0.47737741    -0.66800
O371        O  0.95002127  0.03503180  0.49802657    -0.53900
C372        C  0.93209550  0.04181159  0.48239138     0.73200
Zr373      Zr  0.94140151  0.10403754  0.48861162     2.77500
O374        O  0.89322929  0.10583061  0.48769706    -0.97500
O375        O  0.94595593  0.10407435  0.44372443    -0.78300
Zr376      Zr  0.93926414  0.10330975  0.56154515     2.70100
O377        O  0.89111900  0.10480535  0.56051488    -0.79600
O378        O  0.94156209  0.09993780  0.60650767    -0.98700
Zr379      Zr  0.97937147  0.05659088  0.52608877     2.21500
Zr380      Zr  0.97887723  0.15132020  0.52655632     2.11100
O381        O  0.93975808  0.12717544  0.52515644    -2.47300
O382        O  0.93998861  0.08026594  0.52498269    -0.79400
O383        O  0.98024243  0.12773185  0.48980839    -0.71600
O384        O  0.97807860  0.07971784  0.56319723    -2.32500
O385        O  0.98043593  0.08069687  0.48934364    -2.28700
O386        O  0.97778547  0.12720349  0.56331339    -0.73300
H387        H  0.03383079  0.13732751  0.52857065     0.78700
H388        H  0.97771906  0.06955563  0.57768384     0.79800
H389        H  0.92408141  0.13698071  0.52480962     0.82000
H390        H  0.98090920  0.07098392  0.47470031     0.79600
H391        H  0.00974321  0.11760778  0.61457183     0.42600
H392        H  0.94774944  0.11562069  0.61217184     0.41600
H393        H  0.88628817  0.09844357  0.54406562     0.41300
H394        H  0.88845645  0.10441123  0.46995666     0.39200
H395        H  0.92790970  0.10744805  0.43737312     0.42300
H396        H  0.00440930  0.09722525  0.44116286     0.37100
H397        H  0.06995430  0.09672348  0.51376436     0.43200
H398        H  0.07020216  0.11892318  0.55822334     0.39700
H399        H  0.88732971  0.09074824  0.49531820     0.44600
H400        H  0.03536942  0.09538733  0.44184838     0.43300
H401        H  0.06786355  0.11015136  0.58576659     0.43400
H402        H  0.92284668  0.09908631  0.61181767     0.43800
C403        C  0.94904753  0.44463385  0.29887024    -0.10600
C404        C  0.97296113  0.45036647  0.28764064    -0.04500
C405        C  0.99588800  0.43720585  0.29142341    -0.10600
C406        C  0.99594740  0.41856546  0.30909324     0.10300
C407        C  0.97210968  0.41312311  0.32199473    -0.02400
C408        C  0.94828452  0.42570766  0.31633149     0.10100
C409        C  0.92474750  0.41909361  0.32832997    -0.12400
C410        C  0.92457101  0.40084143  0.34611049    -0.12400
C411        C  0.94794617  0.38869238  0.35251888     0.10100
C412        C  0.97198070  0.39472169  0.34014626    -0.02400
C413        C  0.01895826  0.40540432  0.31429930    -0.12500
C414        C  0.01896151  0.38759537  0.33247296    -0.12500
C415        C  0.99584669  0.38216505  0.34571223     0.10300
C416        C  0.99559929  0.36449623  0.36443116    -0.10600
C417        C  0.97219151  0.35949380  0.37670502    -0.04500
C418        C  0.94837590  0.37066284  0.37100001    -0.10600
H419        H  0.90638957  0.42825719  0.32421913     0.07600
H420        H  0.90607668  0.39647181  0.35511729     0.07600
H421        H  0.03723395  0.40915966  0.30462301     0.07800
H422        H  0.03721940  0.37813571  0.33622756     0.07800
H423        H  0.97316360  0.46431069  0.27362856     0.04200
H424        H  0.97229540  0.34539161  0.39055437     0.04200
C425        C  0.30546676  0.12048071  0.27636052    -0.10600
C426        C  0.31405959  0.09878667  0.26739919    -0.04500
C427        C  0.30739689  0.07740036  0.27879713    -0.10600
C428        C  0.29120910  0.07740134  0.30008949     0.10300
C429        C  0.28153593  0.09931880  0.30914451    -0.02400
C430        C  0.28854808  0.12099504  0.29715514     0.10100
C431        C  0.27816714  0.14235391  0.30601372    -0.12400
C432        C  0.26079484  0.14249788  0.32605835    -0.12400
C433        C  0.25390500  0.12136309  0.33831725     0.10100
C434        C  0.26458714  0.09954739  0.33004411    -0.02400
C435        C  0.28421104  0.05626248  0.31232700    -0.12500
C436        C  0.26761385  0.05651220  0.33299153    -0.12500
C437        C  0.25748051  0.07789955  0.34204372     0.10300
C438        C  0.24022552  0.07848469  0.36267377    -0.10600
C439        C  0.23056447  0.10016951  0.37074108    -0.04500
C440        C  0.23618345  0.12126936  0.35844860    -0.10600
H441        H  0.28307624  0.15904891  0.29718287     0.07600
H442        H  0.25292195  0.15931749  0.33208239     0.07600
H443        H  0.29144308  0.03936869  0.30585913     0.07800
H444        H  0.26267395  0.03983829  0.34184967     0.07800
H445        H  0.32657775  0.09855139  0.25107571     0.04200
H446        H  0.21637113  0.10041787  0.38581801     0.04200
C447        C  0.22483344  0.42764262  0.99861074    -0.10600
C448        C  0.21674385  0.43685234  0.02117063    -0.04500
C449        C  0.23030561  0.43223412  0.04318584    -0.10600
C450        C  0.25270373  0.41728563  0.04306212     0.10300
C451        C  0.26201328  0.40851645  0.02004128    -0.02400
C452        C  0.24809161  0.41373997  0.99762648     0.10100
C453        C  0.25747772  0.40452651  0.97520974    -0.12400
C454        C  0.28021992  0.39039942  0.97473990    -0.12400
C455        C  0.29420282  0.38508694  0.99665998     0.10100
C456        C  0.28488134  0.39399433  0.01953548    -0.02400
C457        C  0.26552607  0.41035421  0.06513536    -0.12500
C458        C  0.28691437  0.39464320  0.06468852    -0.12500
C459        C  0.29703401  0.38660690  0.04209864     0.10300
C460        C  0.31892703  0.37110236  0.04138868    -0.10600
C461        C  0.33088620  0.36664000  0.01867482    -0.04500
C462        C  0.31698527  0.37053943  0.99656554    -0.10600
H463        H  0.24724885  0.40820137  0.95792320     0.07600
H464        H  0.28695362  0.38370238  0.95710701     0.07600
H465        H  0.25861730  0.41657150  0.08289754     0.07800
H466        H  0.29606211  0.38929891  0.08205168     0.07800
H467        H  0.19920080  0.44799739  0.02162946     0.04200
H468        H  0.34742522  0.35430583  0.01848013     0.04200
C469        C  0.65656669  0.06907779  0.26926369    -0.10600
C470        C  0.65191769  0.09027923  0.25667597    -0.04500
C471        C  0.66428104  0.11129778  0.26333809    -0.10600
C472        C  0.68293081  0.11119805  0.28294049     0.10300
C473        C  0.68791493  0.08968871  0.29613017    -0.02400
C474        C  0.67446774  0.06853654  0.28943516     0.10100
C475        C  0.67950035  0.04756637  0.30281010    -0.12400
C476        C  0.69757687  0.04724164  0.32248077    -0.12400
C477        C  0.71132729  0.06783121  0.32921437     0.10100
C478        C  0.70651831  0.08928316  0.31589383    -0.02400
C479        C  0.69679021  0.13174375  0.28957193    -0.12500
C480        C  0.71565815  0.13118397  0.30857456    -0.12500
C481        C  0.72075760  0.11019880  0.32192807     0.10300
C482        C  0.73998278  0.10928868  0.34099718    -0.10600
C483        C  0.74364580  0.08841818  0.35442912    -0.04500
C484        C  0.72987221  0.06775698  0.34890082    -0.10600
H485        H  0.66945834  0.03127264  0.29809489     0.07600
H486        H  0.70081974  0.03072622  0.33235491     0.07600
H487        H  0.69339216  0.14829520  0.27981090     0.07800
H488        H  0.72617896  0.14734950  0.31283357     0.07800
H489        H  0.63791828  0.09048725  0.24131011     0.04200
H490        H  0.75850914  0.08799743  0.36905868     0.04200
C491        C  0.98728008  0.78239549  0.27370360    -0.10600
C492        C  0.96696784  0.76598529  0.27426529    -0.04500
C493        C  0.94408287  0.76920762  0.28803012    -0.10600
C494        C  0.94253443  0.78895080  0.30434369     0.10300
C495        C  0.96449549  0.80488333  0.30575093    -0.02400
C496        C  0.98676971  0.80180520  0.28994253     0.10100
C497        C  0.00787941  0.81790466  0.29099541    -0.12400
C498        C  0.00781123  0.83642081  0.30795330    -0.12400
C499        C  0.98634169  0.83973705  0.32395643     0.10100
C500        C  0.96412405  0.82413473  0.32262627    -0.02400
C501        C  0.92042534  0.79311890  0.31948366    -0.12500
C502        C  0.92005784  0.81215498  0.33621007    -0.12500
C503        C  0.94172773  0.82771569  0.33823490     0.10300
C504        C  0.94219001  0.84686423  0.35527829    -0.10600
C505        C  0.96432660  0.86149417  0.35621158    -0.04500
C506        C  0.98625552  0.85829115  0.34132584    -0.10600
H507        H  0.02487938  0.81590681  0.27903908     0.07600
H508        H  0.02471560  0.84819032  0.30848700     0.07600
H509        H  0.90349657  0.78138986  0.31872886     0.07800
H510        H  0.90279182  0.81456255  0.34774097     0.07800
H511        H  0.96798544  0.75116707  0.26153853     0.04200
H512        H  0.96452279  0.87615112  0.36917700     0.04200
C513        C  0.30473424  0.10984889  0.77889579    -0.10600
C514        C  0.31791230  0.08884768  0.78432116    -0.04500
C515        C  0.31113601  0.06756883  0.77308419    -0.10600
C516        C  0.29154909  0.06734944  0.75432299     0.10300
C517        C  0.27848679  0.08885969  0.74787301    -0.02400
C518        C  0.28484600  0.11018249  0.76045452     0.10100
C519        C  0.27104510  0.13104349  0.75447520    -0.12400
C520        C  0.25114584  0.13104953  0.73647006    -0.12400
C521        C  0.24455600  0.11021409  0.72383075     0.10100
C522        C  0.25844063  0.08890998  0.72941604    -0.02400
C523        C  0.28476259  0.04645559  0.74186658    -0.12500
C524        C  0.26556988  0.04665436  0.72311889    -0.12500
C525        C  0.25206202  0.06761570  0.71678905     0.10300
C526        C  0.23199562  0.06803144  0.69842270    -0.10600
C527        C  0.21827033  0.08898365  0.69365789    -0.04500
C528        C  0.22412236  0.10986608  0.70596072    -0.10600
H529        H  0.27555209  0.14748811  0.76375679     0.07600
H530        H  0.24088784  0.14749550  0.73252197     0.07600
H531        H  0.29453839  0.02989766  0.74636879     0.07800
H532        H  0.26105941  0.03021234  0.71383314     0.07800
H533        H  0.33249586  0.08871916  0.79920139     0.04200
H534        H  0.20246243  0.08904278  0.67991811     0.04200
C535        C  0.94663226  0.44236326  0.74598415    -0.10600
C536        C  0.96955270  0.45517966  0.75079553    -0.04500
C537        C  0.99394199  0.44891712  0.74098041    -0.10600
C538        C  0.99504468  0.43089715  0.72285926     0.10300
C539        C  0.97099421  0.42006821  0.71481866    -0.02400
C540        C  0.94675358  0.42516882  0.72705830     0.10100
C541        C  0.92360139  0.41320209  0.71986300    -0.12400
C542        C  0.92379557  0.39751295  0.69984940    -0.12400
C543        C  0.94730410  0.39285734  0.68690755     0.10100
C544        C  0.97134127  0.40351218  0.69514715    -0.02400
C545        C  0.01910154  0.42346345  0.71250973    -0.12500
C546        C  0.01953964  0.40630725  0.69388746    -0.12500
C547        C  0.99588780  0.39671906  0.68450234     0.10300
C548        C  0.99588761  0.38036168  0.66475845    -0.10600
C549        C  0.97188801  0.37366721  0.65420460    -0.04500
C550        C  0.94781216  0.37795010  0.66584050    -0.10600
H551        H  0.90502864  0.41662974  0.72912168     0.07600
H552        H  0.90536009  0.38929879  0.69428881     0.07600
H553        H  0.03766476  0.43107866  0.71861923     0.07800
H554        H  0.03842466  0.40116319  0.68617105     0.07800
H555        H  0.96904836  0.46838873  0.76534792     0.04200
H556        H  0.97227602  0.36107147  0.63908312     0.04200
C557        C  0.23092253  0.76551099  0.03587936    -0.10600
C558        C  0.22587834  0.75333855  0.01411898    -0.04500
C559        C  0.23792664  0.75927149  0.99176805    -0.10600
C560        C  0.25678256  0.77775157  0.99098589     0.10300
C561        C  0.26310071  0.78993219  0.01322780    -0.02400
C562        C  0.24996901  0.78394043  0.03580977     0.10100
C563        C  0.25622527  0.79649639  0.05740336    -0.12400
C564        C  0.27539231  0.81436266  0.05707990    -0.12400
C565        C  0.28861752  0.82047637  0.03506910     0.10100
C566        C  0.28223081  0.80838142  0.01279007    -0.02400
C567        C  0.26941070  0.78434584  0.96881952    -0.12500
C568        C  0.28805114  0.80266801  0.96834216    -0.12500
C569        C  0.29474835  0.81488396  0.99004128     0.10300
C570        C  0.31370675  0.83339848  0.98994033    -0.10600
C571        C  0.32003064  0.84447799  0.01215038    -0.04500
C572        C  0.30808199  0.83842980  0.03449368    -0.10600
H573        H  0.24648423  0.79237269  0.07473854     0.07600
H574        H  0.27980716  0.82342923  0.07421029     0.07600
H575        H  0.26495130  0.77527657  0.95170079     0.07800
H576        H  0.29736491  0.80714216  0.95089309     0.07800
H577        H  0.21093096  0.73949252  0.01430934     0.04200
H578        H  0.33424770  0.85891932  0.01193500     0.04200
C579        C  0.72154710  0.42952960  0.00402807    -0.10600
C580        C  0.73134578  0.43706095  0.02677064    -0.04500
C581        C  0.72387634  0.42648315  0.04898158    -0.10600
C582        C  0.70347381  0.40934063  0.04901829     0.10300
C583        C  0.69208513  0.40222492  0.02603282    -0.02400
C584        C  0.70160279  0.41193639  0.00332093     0.10100
C585        C  0.69105261  0.40374104  0.98081124    -0.12400
C586        C  0.67104118  0.38658409  0.98049396    -0.12400
C587        C  0.66106320  0.37703099  0.00267284     0.10100
C588        C  0.67181786  0.38480078  0.02572896    -0.02400
C589        C  0.69433367  0.39907335  0.07115988    -0.12500
C590        C  0.67395733  0.38233337  0.07092405    -0.12500
C591        C  0.66251172  0.37497475  0.04849683     0.10300
C592        C  0.64202861  0.35794696  0.04793540    -0.10600
C593        C  0.63198575  0.35060610  0.02527729    -0.04500
C594        C  0.64067550  0.35981133  0.00279321    -0.10600
H595        H  0.69807816  0.41076757  0.96331329     0.07600
H596        H  0.66330955  0.38087078  0.96277425     0.07600
H597        H  0.70268232  0.40421992  0.08883324     0.07800
H598        H  0.66724787  0.37507916  0.08842996     0.07800
H599        H  0.74720731  0.45006814  0.02701056     0.04200
H600        H  0.61694958  0.33683167  0.02511212     0.04200
C601        C  0.94678426  0.75970415  0.75067586    -0.10600
C602        C  0.97145539  0.75321161  0.76016878    -0.04500
C603        C  0.99364849  0.76745559  0.75759764    -0.10600
C604        C  0.99240408  0.78772971  0.74228600     0.10300
C605        C  0.96784970  0.79412764  0.73100274    -0.02400
C606        C  0.94468448  0.78037534  0.73558369     0.10100
C607        C  0.92053046  0.78760809  0.72485757    -0.12400
C608        C  0.91912538  0.80780823  0.70954275    -0.12400
C609        C  0.94171807  0.82167928  0.70494938     0.10100
C610        C  0.96635292  0.81478209  0.71589603    -0.02400
C611        C  0.01497755  0.80158864  0.73793029    -0.12500
C612        C  0.01376376  0.82130324  0.72226953    -0.12500
C613        C  0.98970870  0.82826191  0.71131863     0.10300
C614        C  0.98809627  0.84864354  0.69618872    -0.10600
C615        C  0.96363397  0.85607102  0.68732433    -0.04500
C616        C  0.94081368  0.84245019  0.68995381    -0.10600
H617        H  0.90267430  0.77744973  0.72803046     0.07600
H618        H  0.90019037  0.81270910  0.70151770     0.07600
H619        H  0.03383979  0.79692858  0.74627180     0.07800
H620        H  0.03168011  0.83140062  0.71916522     0.07800
H621        H  0.97271916  0.73807084  0.77270015     0.04200
H622        H  0.96281480  0.87206183  0.67598231     0.04200
C623        C  0.66134913  0.12067336  0.79352842    -0.10600
C624        C  0.65274347  0.09894308  0.80267370    -0.04500
C625        C  0.66249113  0.07757194  0.79388009    -0.10600
C626        C  0.68087636  0.07768007  0.77409537     0.10300
C627        C  0.68998736  0.09978335  0.76451760    -0.02400
C628        C  0.68041123  0.12140196  0.77449085     0.10100
C629        C  0.69041601  0.14299894  0.76551856    -0.12400
C630        C  0.70993904  0.14349031  0.74732289    -0.12400
C631        C  0.71948446  0.12242786  0.73701837     0.10100
C632        C  0.70913580  0.10031542  0.74533797    -0.02400
C633        C  0.69054374  0.05660969  0.76380222    -0.12500
C634        C  0.70860112  0.05715183  0.74415871    -0.12500
C635        C  0.71822729  0.07876882  0.73477026     0.10300
C636        C  0.73694406  0.07975335  0.71527408    -0.10600
C637        C  0.74706889  0.10159163  0.70782354    -0.04500
C638        C  0.73920448  0.12271523  0.71858536    -0.10600
H639        H  0.68344126  0.15966359  0.77281373     0.07600
H640        H  0.71733462  0.16051134  0.74112692     0.07600
H641        H  0.68391457  0.03958873  0.77072988     0.07800
H642        H  0.71534822  0.04052561  0.73658866     0.07800
H643        H  0.63869658  0.09867726  0.81787470     0.04200
H644        H  0.76208702  0.10213235  0.69346477     0.04200
C645        C  0.72396589  0.76967398  0.05212424    -0.10600
C646        C  0.73324778  0.76195245  0.02934142    -0.04500
C647        C  0.72450341  0.77173668  0.00702372    -0.10600
C648        C  0.70455563  0.78928625  0.00704996     0.10300
C649        C  0.69433924  0.79716599  0.03009227    -0.02400
C650        C  0.70436969  0.78760401  0.05281442     0.10100
C651        C  0.69445951  0.79611138  0.07533176    -0.12400
C652        C  0.67495173  0.81369707  0.07566770    -0.12400
C653        C  0.66470915  0.82327875  0.05349840     0.10100
C654        C  0.67437277  0.81488167  0.03040880    -0.02400
C655        C  0.69454527  0.79904948  0.98486494    -0.12500
C656        C  0.67445364  0.81609247  0.98514941    -0.12500
C657        C  0.66415264  0.82425080  0.00763980     0.10300
C658        C  0.64397817  0.84164314  0.00831385    -0.10600
C659        C  0.63538403  0.84990877  0.03107746    -0.04500
C660        C  0.64513996  0.84120719  0.05350599    -0.10600
H661        H  0.70174102  0.78915051  0.09283371     0.07600
H662        H  0.66787522  0.81979078  0.09341997     0.07600
H663        H  0.70198987  0.79328798  0.96712087     0.07800
H664        H  0.66709481  0.82297685  0.96764310     0.07800
H665        H  0.74877922  0.74862927  0.02899931     0.04200
H666        H  0.62047871  0.86380528  0.03135033     0.04200
C667        C  0.01783784  0.34887719  0.37206191    -0.19700
C668        C  0.02865175  0.35210806  0.39595049     0.36600
C669        C  0.03608168  0.33227397  0.41028213    -0.25600
C670        C  0.03323137  0.30923506  0.40108553     0.03000
C671        C  0.02542021  0.30621099  0.37612582     0.27800
C672        C  0.01800814  0.32611087  0.36181005    -0.24800
N673        N  0.02890439  0.37533774  0.40658448    -0.82100
H674        H  0.04227246  0.33472934  0.42933344     0.13600
C675        C  0.03707151  0.28856443  0.41814791     0.03000
N676        N  0.02369236  0.28286261  0.36585397    -0.80700
H677        H  0.00923823  0.32353843  0.34366207     0.18400
C678        C  0.01706309  0.27133714  0.42032218    -0.25600
C679        C  0.02106637  0.25061937  0.43446493     0.36500
C680        C  0.04491258  0.24743916  0.44770796    -0.19600
C681        C  0.06357461  0.26593551  0.44771042    -0.24800
C682        C  0.06044774  0.28591825  0.43231846     0.27800
H683        H  0.99868021  0.27346581  0.41009754     0.13600
N684        N  0.00158455  0.23225127  0.43407972    -0.82100
H685        H  0.08190009  0.26369273  0.45799596     0.18500
N686        N  0.08158542  0.30280270  0.42993535    -0.80700
H687        H  0.98403234  0.23917408  0.44117524     0.34100
H688        H  0.99832439  0.22739244  0.41566454     0.38600
H689        H  0.09752013  0.29815833  0.44142170     0.34000
H690        H  0.08850483  0.30197187  0.41173084     0.30700
H691        H  0.01721010  0.28366099  0.34743722     0.34100
H692        H  0.04282201  0.27579734  0.36562148     0.30700
H693        H  0.04186214  0.38571598  0.39607572     0.38600
H694        H  0.03661417  0.37474218  0.42459646     0.34100
C695        C  0.21925005  0.14143527  0.36548248    -0.19700
C696        C  0.19341953  0.14325997  0.35533217     0.36600
C697        C  0.17375404  0.15496864  0.36861680    -0.25600
C698        C  0.17905970  0.16484150  0.39187849     0.03000
C699        C  0.20522933  0.16467494  0.40113425     0.27800
C700        C  0.22510268  0.15290996  0.38781654    -0.24800
N701        N  0.18591534  0.13188934  0.33260015    -0.82100
H702        H  0.15369442  0.15499532  0.36138510     0.13600
C703        C  0.15642882  0.17325761  0.40695105     0.03000
N704        N  0.21121718  0.17553325  0.42448340    -0.80700
H705        H  0.24469969  0.15098008  0.39585151     0.18400
C706        C  0.15185746  0.16319530  0.43045553    -0.25600
C707        C  0.12921428  0.16909361  0.44425713     0.36500
C708        C  0.11015677  0.18461555  0.43384666    -0.19600
C709        C  0.11486847  0.19447755  0.41019234    -0.24800
C710        C  0.13807378  0.18956309  0.39706639     0.27800
H711        H  0.16590610  0.15050147  0.43795968     0.13600
N712        N  0.12574227  0.15960694  0.46881224    -0.82100
H713        H  0.10035624  0.20621633  0.40181613     0.18500
N714        N  0.14311604  0.20105371  0.37368588    -0.80700
H715        H  0.14151464  0.14846996  0.47363773     0.34100
H716        H  0.12628357  0.17377898  0.48114180     0.38600
H717        H  0.12770005  0.21264207  0.36902128     0.34000
H718        H  0.16008547  0.21144346  0.37584970     0.30700
H719        H  0.23130276  0.17356425  0.42881388     0.34100
H720        H  0.20775263  0.19369242  0.42247873     0.30700
H721        H  0.20212812  0.12437285  0.32370949     0.38600
H722        H  0.17293327  0.11810098  0.33704658     0.34100
C723        C  0.22731473  0.05769244  0.37451875    -0.19700
C724        C  0.20323161  0.04944032  0.36436884     0.36600
C725        C  0.18375166  0.04010524  0.37998862    -0.25600
C726        C  0.18764812  0.03878563  0.40572382     0.03000
C727        C  0.21288302  0.04434661  0.41564362     0.27800
C728        C  0.23243517  0.05364020  0.39985172    -0.24800
N729        N  0.19708613  0.05242323  0.33858469    -0.82100
H730        H  0.16466081  0.03543356  0.37217941     0.13600
C731        C  0.16411646  0.03414493  0.42148202     0.03000
N732        N  0.21873645  0.04260273  0.44169241    -0.80700
H733        H  0.25064950  0.06025074  0.40792992     0.18400
C734        C  0.15964192  0.01140951  0.43108200    -0.25600
C735        C  0.13553939  0.00573840  0.44263038     0.36500
C736        C  0.11535191  0.02300128  0.44443622    -0.19600
C737        C  0.12067312  0.04619166  0.43633222    -0.24800
C738        C  0.14487497  0.05194436  0.42493745     0.27800
H739        H  0.17452225  0.99778872  0.42878616     0.13600
N740        N  0.13136713  0.98225196  0.45199640    -0.82100
H741        H  0.10532191  0.05953195  0.43751984     0.18500
N742        N  0.14960227  0.07555382  0.41586745    -0.80700
H743        H  0.13376184  0.97042935  0.43736578     0.34100
H744        H  0.14608871  0.97863755  0.46517664     0.38600
H745        H  0.13337290  0.08647225  0.41948865     0.34000
H746        H  0.16557979  0.08243068  0.42587198     0.30700
H747        H  0.23405183  0.03029506  0.44388596     0.34100
H748        H  0.20268818  0.03598882  0.45167183     0.30700
H749        H  0.21157331  0.04368669  0.32834904     0.38600
H750        H  0.19772114  0.07043753  0.33406819     0.34100
C751        C  0.00781994  0.87554344  0.34593604    -0.19700
C752        C  0.00537075  0.89834328  0.33542188     0.36600
C753        C  0.01361299  0.91818053  0.34907945    -0.25600
C754        C  0.02468967  0.91553983  0.37289448     0.03000
C755        C  0.03048841  0.89253940  0.38181970     0.27800
C756        C  0.02201073  0.87276165  0.36822328    -0.24800
N757        N  0.99183361  0.90131457  0.31213246    -0.82100
H758        H  0.00959104  0.93577419  0.34188489     0.13600
C759        C  0.02853629  0.93675543  0.38889302     0.03000
N760        N  0.04370181  0.88939941  0.40526791    -0.80700
H761        H  0.02367731  0.85525389  0.37644031     0.18400
C762        C  0.01732706  0.93720992  0.41276186    -0.25600
C763        C  0.02217310  0.95611056  0.42913604     0.36500
C764        C  0.03764915  0.97545194  0.42110727    -0.19600
C765        C  0.04676853  0.97582610  0.39644029    -0.24800
C766        C  0.04315003  0.95647952  0.38059926     0.27800
H767        H  0.00544072  0.92235020  0.41892304     0.13600
N768        N  0.01234064  0.95523097  0.45406212    -0.82100
H769        H  0.05827502  0.99080909  0.38996275     0.18500
N770        N  0.05523849  0.95639044  0.35652834    -0.80700
H771        H  0.00116350  0.93989018  0.45692901     0.34100
H772        H  0.02866649  0.95405939  0.46599497     0.38600
H773        H  0.06543396  0.97220570  0.35328811     0.34000
H774        H  0.06940636  0.94288681  0.35651147     0.30700
H775        H  0.04615722  0.87140642  0.40933686     0.34100
H776        H  0.06269136  0.89656952  0.40358038     0.30700
H777        H  0.00313874  0.89284100  0.29866186     0.38600
H778        H  0.99109217  0.91920929  0.30709404     0.34100
C779        C  0.84775927  0.01779934  0.43878864    -0.19700
C780        C  0.82581455  0.00249008  0.44194727     0.36600
C781        C  0.80307750  0.00565195  0.42713251    -0.25600
C782        C  0.80187134  0.02379888  0.40936138     0.03000
C783        C  0.82304162  0.04003188  0.40732985     0.27800
C784        C  0.84575440  0.03687098  0.42211974    -0.24800
N785        N  0.82698019  0.98353258  0.45985210    -0.82100
H786        H  0.78642487  0.99371329  0.42910825     0.13600
C787        C  0.77794072  0.02650904  0.39360086     0.03000
N788        N  0.82131472  0.05974911  0.39036685    -0.80700
H789        H  0.86250417  0.04862252  0.41968960     0.18400
C790        C  0.75527381  0.03642890  0.40416803    -0.25600
C791        C  0.73540526  0.04638842  0.38919751     0.36500
C792        C  0.73851959  0.04659098  0.36314291    -0.19600
C793        C  0.75891022  0.03315255  0.35270042    -0.24800
C794        C  0.77868864  0.02295566  0.36766189     0.27800
H795        H  0.75414386  0.03841477  0.42409602     0.13600
N796        N  0.71374814  0.05831778  0.40093176    -0.82100
H797        H  0.76136135  0.03308678  0.33275631     0.18500
N798        N  0.80019998  0.01086833  0.35581705    -0.80700
H799        H  0.72140873  0.07309427  0.41003711     0.34100
H800        H  0.70007370  0.06447664  0.38779322     0.38600
H801        H  0.79216546  0.99647469  0.34633414     0.34000
H802        H  0.81333370  0.00369690  0.36885442     0.30700
H803        H  0.83793466  0.07064990  0.39208747     0.34100
H804        H  0.82175631  0.05309583  0.37237397     0.30700
H805        H  0.82857171  0.99114374  0.47738727     0.38600
H806        H  0.80937583  0.97380406  0.45971989     0.34100
C807        C  0.91873806  0.95899544  0.44574267    -0.19700
C808        C  0.93365246  0.95579429  0.42398463     0.36600
C809        C  0.93282523  0.93379800  0.41172061    -0.25600
C810        C  0.91712319  0.91499000  0.42061943     0.03000
C811        C  0.90394076  0.91761513  0.44339331     0.27800
C812        C  0.90499256  0.93950570  0.45575375    -0.24800
N813        N  0.94783921  0.97543528  0.41340627    -0.82100
H814        H  0.94347131  0.93162720  0.39449935     0.13600
C815        C  0.91404780  0.89308521  0.40536372     0.03000
N816        N  0.88836680  0.89847075  0.45319801    -0.80700
H817        H  0.89312174  0.94204695  0.47219487     0.18400
C818        C  0.92433950  0.87154276  0.41429172    -0.25600
C819        C  0.92759697  0.85209351  0.39839056     0.36500
C820        C  0.92126190  0.85431337  0.37294539    -0.19600
C821        C  0.90634744  0.87413935  0.36540120    -0.24800
C822        C  0.90289588  0.89366454  0.38115048     0.27800
H823        H  0.93198562  0.87042541  0.43305992     0.13600
N824        N  0.94116833  0.83138212  0.40714268    -0.82100
H825        H  0.90091760  0.87606572  0.34603440     0.18500
N826        N  0.88929832  0.91412763  0.37143656    -0.80700
H827        H  0.95969339  0.83652421  0.41395367     0.34100
H828        H  0.93035170  0.82431080  0.42191207     0.38600
H829        H  0.87009835  0.90884063  0.36673569     0.34000
H830        H  0.88706234  0.92711336  0.38490339     0.30700
H831        H  0.87983786  0.90323786  0.47005175     0.34100
H832        H  0.87274355  0.89547607  0.44083586     0.30700
H833        H  0.96280741  0.98005936  0.42590662     0.38600
H834        H  0.95728450  0.97037336  0.39708378     0.34100
C835        C  0.91178967  0.24948767  0.44694661    -0.19700
C836        C  0.92733768  0.25437771  0.42586736     0.36600
C837        C  0.92812007  0.27749249  0.41598409    -0.25600
C838        C  0.91268869  0.29581070  0.42587879     0.03000
C839        C  0.89733900  0.29108605  0.44718517     0.27800
C840        C  0.89719562  0.26801136  0.45759095    -0.24800
N841        N  0.94100214  0.23547940  0.41362178    -0.82100
H842        H  0.94002069  0.28104668  0.39971820     0.13600
C843        C  0.91243264  0.31929791  0.41274391     0.03000
N844        N  0.88107250  0.30938140  0.45748517    -0.80700
H845        H  0.88435360  0.26407170  0.47310681     0.18400
C846        C  0.90669433  0.32012659  0.38720135    -0.25600
C847        C  0.91329677  0.34008909  0.37262214     0.36500
C848        C  0.92532517  0.35983658  0.38391626    -0.19600
C849        C  0.92621105  0.36057882  0.41000952    -0.24800
C850        C  0.92123731  0.34013572  0.42434016     0.27800
H851        H  0.89927819  0.30434845  0.37824835     0.13600
N852        N  0.91055325  0.33935597  0.34609967    -0.82100
H853        H  0.93567620  0.37550808  0.41890696     0.18500
N854        N  0.92801810  0.33988684  0.45013034    -0.80700
H855        H  0.90115131  0.32372647  0.34071529     0.34100
H856        H  0.92950703  0.33887040  0.33842171     0.38600
H857        H  0.94812611  0.34401429  0.45181272     0.34000
H858        H  0.91719442  0.35322924  0.45877900     0.30700
H859        H  0.86674673  0.31393567  0.44423345     0.34100
H860        H  0.87091357  0.30304857  0.47301025     0.30700
H861        H  0.92677802  0.22402156  0.40630848     0.38600
H862        H  0.95177429  0.24200712  0.39855354     0.34100
C863        C  0.75831131  0.12875696  0.34734042    -0.19700
C864        C  0.75056969  0.14637900  0.36405250     0.36600
C865        C  0.76995286  0.15959085  0.37656704    -0.25600
C866        C  0.79695945  0.15476911  0.37323371     0.03000
C867        C  0.80468458  0.13759427  0.35583136     0.27800
C868        C  0.78534349  0.12525428  0.34261590    -0.24800
N869        N  0.72315189  0.14954498  0.36975972    -0.82100
H870        H  0.76391473  0.17248454  0.39018309     0.13600
C871        C  0.81653683  0.16520318  0.39042332     0.03000
N872        N  0.83185378  0.13094374  0.35275155    -0.80700
H873        H  0.79142881  0.11110104  0.33043994     0.18400
C874        C  0.81999804  0.15473045  0.41384305    -0.25600
C875        C  0.83893318  0.16336591  0.43068674     0.36500
C876        C  0.85555006  0.18236501  0.42353083    -0.19600
C877        C  0.85153173  0.19304859  0.40006770    -0.24800
C878        C  0.83187294  0.18494367  0.38366956     0.27800
H879        H  0.80771304  0.13977888  0.41900829     0.13600
N880        N  0.84096866  0.15315673  0.45510170    -0.82100
H881        H  0.86402396  0.20761965  0.39426671     0.18500
N882        N  0.82700778  0.19700740  0.36051930    -0.80700
H883        H  0.82739539  0.13934292  0.45731075     0.34100
H884        H  0.83570163  0.16623057  0.46776231     0.38600
H885        H  0.83951856  0.21164518  0.35868045     0.34000
H886        H  0.83174574  0.18553729  0.34613477     0.30700
H887        H  0.83927452  0.12510478  0.36985548     0.34100
H888        H  0.84263782  0.14580021  0.34719922     0.30700
H889        H  0.71819646  0.16718090  0.36601152     0.38600
H890        H  0.72068507  0.14649050  0.38874228     0.34100
C891        C  0.04362489  0.24673583  0.61249230    -0.19700
C892        C  0.02992734  0.26374932  0.59794723     0.36600
C893        C  0.02602568  0.28688493  0.60733989    -0.25600
C894        C  0.03696568  0.29393600  0.63029206     0.03000
C895        C  0.05102641  0.27695772  0.64444476     0.27800
C896        C  0.05268921  0.25360517  0.63614981    -0.24800
N897        N  0.02034766  0.25774864  0.57370285    -0.82100
H898        H  0.01450674  0.29948290  0.59658300     0.13600
C899        C  0.03230531  0.31839056  0.64031394     0.03000
N900        N  0.06415702  0.28353610  0.66709379    -0.80700
H901        H  0.06211832  0.24074791  0.64823471     0.18400
C902        C  0.02483260  0.32083383  0.66525608    -0.25600
C903        C  0.01823404  0.34276528  0.67521919     0.36500
C904        C  0.01734198  0.36307092  0.65981100    -0.19600
C905        C  0.02674639  0.36120568  0.63538465    -0.24800
C906        C  0.03449942  0.33914157  0.62555220     0.27800
H907        H  0.02246239  0.30533463  0.67695282     0.13600
N908        N  0.00969553  0.34343107  0.70050386    -0.82100
H909        H  0.02556851  0.37656372  0.62327397     0.18500
N910        N  0.04354804  0.33766239  0.60041251    -0.80700
H911        H  0.98986440  0.34867350  0.70109636     0.34100
H912        H  0.02117231  0.35592708  0.70985331     0.38600
H913        H  0.04369336  0.35441574  0.59204428     0.34000
H914        H  0.06318716  0.33182420  0.60093987     0.30700
H915        H  0.07362116  0.26898380  0.67531718     0.34100
H916        H  0.07898594  0.29569435  0.66253622     0.30700
H917        H  0.03680340  0.25419907  0.56265487     0.38600
H918        H  0.01058223  0.27216954  0.56553922     0.34100
C919        C  0.20731739  0.13032157  0.69921699    -0.19700
C920        C  0.18071289  0.13093018  0.70711783     0.36600
C921        C  0.16203405  0.14333424  0.69294136    -0.25600
C922        C  0.16926041  0.15546176  0.67118510     0.03000
C923        C  0.19647318  0.15726367  0.66504957     0.27800
C924        C  0.21508504  0.14426233  0.67892581    -0.24800
N925        N  0.17173971  0.11794941  0.72850743    -0.82100
H926        H  0.14138864  0.14232563  0.69824116     0.13600
C927        C  0.14763076  0.16454595  0.65489169     0.03000
N928        N  0.20581646  0.17133875  0.64456511    -0.80700
H929        H  0.23548378  0.14375127  0.67279597     0.18400
C930        C  0.12810820  0.17891021  0.66531712    -0.25600
C931        C  0.10592096  0.18614529  0.65154715     0.36500
C932        C  0.10385041  0.18007875  0.62621535    -0.19600
C933        C  0.12309632  0.16529946  0.61580950    -0.24800
C934        C  0.14469929  0.15702273  0.63007436     0.27800
H935        H  0.12988120  0.18400736  0.68457146     0.13600
N936        N  0.08508214  0.19914193  0.66338418    -0.82100
H937        H  0.12121305  0.16017975  0.59657916     0.18500
N938        N  0.16344202  0.14080481  0.61961007    -0.80700
H939        H  0.08959933  0.20207913  0.68203516     0.34100
H940        H  0.06809529  0.18857609  0.66307858     0.38600
H941        H  0.16203042  0.12484757  0.62945989     0.34000
H942        H  0.15846823  0.13706664  0.60122571     0.30700
H943        H  0.21922360  0.18367601  0.65165557     0.34100
H944        H  0.19053187  0.18130675  0.63664837     0.30700
H945        H  0.18751475  0.11023362  0.73819952     0.38600
H946        H  0.15958152  0.10422495  0.72230591     0.34100
C947        C  0.92616438  0.36194373  0.65744905    -0.19700
C948        C  0.91917037  0.36180612  0.63192848     0.36600
C949        C  0.91322728  0.34027694  0.62028583    -0.25600
C950        C  0.91385134  0.31887243  0.63358538     0.03000
C951        C  0.91690041  0.31944178  0.65959029     0.27800
C952        C  0.92285267  0.34101598  0.67130976    -0.24800
N953        N  0.92078945  0.38284917  0.61688330    -0.82100
H954        H  0.91009812  0.34007970  0.60040992     0.13600
C955        C  0.91368364  0.29588951  0.62012895     0.03000
N956        N  0.91552780  0.29782781  0.67374517    -0.80700
H957        H  0.92827384  0.34088516  0.69076658     0.18400
C958        C  0.93607327  0.28111116  0.62166199    -0.25600
C959        C  0.93577438  0.25802735  0.61189550     0.36500
C960        C  0.91253925  0.24952256  0.60039359    -0.19600
C961        C  0.89110254  0.26519616  0.59680378    -0.24800
C962        C  0.89135435  0.28819969  0.60670431     0.27800
H963        H  0.95351138  0.28732600  0.63141438     0.13600
N964        N  0.95821619  0.24266490  0.61527860    -0.82100
H965        H  0.87319339  0.25869625  0.58806039     0.18500
N966        N  0.86852633  0.30326515  0.60432275    -0.80700
H967        H  0.97323835  0.25129378  0.62507530     0.34100
H968        H  0.96591072  0.23916813  0.59774261     0.38600
H969        H  0.85372159  0.29494805  0.59396094     0.34000
H970        H  0.86082951  0.30575963  0.62206226     0.30700
H971        H  0.91850567  0.30116618  0.69257998     0.34100
H972        H  0.89627080  0.29125128  0.67196938     0.30700
H973        H  0.92485949  0.39765191  0.62774089     0.38600
H974        H  0.93664122  0.38077321  0.60469593     0.34100
C975        C  0.86070043  0.18298569  0.63423042    -0.19700
C976        C  0.85953603  0.19182932  0.65865027     0.36600
C977        C  0.83784627  0.18640552  0.67381635    -0.25600
C978        C  0.81749402  0.17148831  0.66557241     0.03000
C979        C  0.81907531  0.16197963  0.64146900     0.27800
C980        C  0.84047306  0.16790085  0.62601412    -0.24800
N981        N  0.88064172  0.20600638  0.66832965    -0.82100
H982        H  0.83705312  0.19378437  0.69226738     0.13600
C983        C  0.79561054  0.16476464  0.68275909     0.03000
N984        N  0.79922495  0.14593773  0.63274972    -0.80700
H985        H  0.84103142  0.16095830  0.60736665     0.18400
C986        C  0.76908202  0.16644228  0.67485765    -0.25600
C987        C  0.74857291  0.15587065  0.68852866     0.36500
C988        C  0.75470533  0.14374318  0.71086179    -0.19600
C989        C  0.78056045  0.14497901  0.72033898    -0.24800
C990        C  0.80110501  0.15485265  0.70630588     0.27800
H991        H  0.76445469  0.17477004  0.65720480     0.13600
N992        N  0.72223567  0.15618253  0.67831932    -0.82100
H993        H  0.78548895  0.13546235  0.73727185     0.18500
N994        N  0.82781391  0.15280843  0.71510670    -0.80700
H995        H  0.71631904  0.17388312  0.67696161     0.34100
H996        H  0.70886490  0.14802075  0.69035398     0.38600
H997        H  0.83202617  0.13485962  0.71789621     0.34000
H998        H  0.82905189  0.16124160  0.73224568     0.30700
H999        H  0.80849910  0.13002922  0.62815238     0.34100
H1000       H  0.79086398  0.15311594  0.61659815     0.30700
H1001       H  0.88825104  0.19748627  0.68409271     0.38600
H1002       H  0.87270694  0.22222916  0.67381244     0.34100
C1003       C  0.91171162  0.96056034  0.60923211    -0.19700
C1004       C  0.90499358  0.94033864  0.59540862     0.36600
C1005       C  0.90328015  0.91800913  0.60736696    -0.25600
C1006       C  0.90787393  0.91543937  0.63304823     0.03000
C1007       C  0.91605367  0.93564320  0.64643321     0.27800
C1008       C  0.91779507  0.95778917  0.63449521    -0.24800
N1009       N  0.89854606  0.94281320  0.56956549    -0.82100
H1010       H  0.89745096  0.90268741  0.59672338     0.13600
C1011       C  0.90605634  0.89144836  0.64533056     0.03000
N1012       N  0.92229500  0.93392533  0.67231964    -0.80700
H1013       H  0.92241675  0.97327529  0.64542643     0.18400
C1014       C  0.91842311  0.87192802  0.63431527    -0.25600
C1015       C  0.92385561  0.85129800  0.64816459     0.36500
C1016       C  0.91859566  0.85072301  0.67384708    -0.19600
C1017       C  0.90166888  0.86805812  0.68342608    -0.24800
C1018       C  0.89455801  0.88810638  0.66902672     0.27800
H1019       H  0.92618818  0.87339328  0.61569588     0.13600
N1020       N  0.93906669  0.83267555  0.63733662    -0.82100
H1021       H  0.89664063  0.86743065  0.70291221     0.18500
N1022       N  0.87687153  0.90559242  0.67879082    -0.80700
H1023       H  0.92847211  0.82626076  0.62212287     0.34100
H1024       H  0.95681648  0.83987015  0.63081619     0.38600
H1025       H  0.87018458  0.90044880  0.69632865     0.34000
H1026       H  0.86023207  0.90620516  0.66720587     0.30700
H1027       H  0.94161929  0.93988556  0.67507928     0.34100
H1028       H  0.90968341  0.94533977  0.68183791     0.30700
H1029       H  0.91562080  0.94859318  0.56047047     0.38600
H1030       H  0.89368104  0.92637919  0.56203380     0.34100
C1031       C  0.84707157  0.02485574  0.61616435    -0.19700
C1032       C  0.82339600  0.01160054  0.61531715     0.36600
C1033       C  0.80227211  0.01737818  0.63099804    -0.25600
C1034       C  0.80408625  0.03664308  0.64713214     0.03000
C1035       C  0.82701208  0.05096126  0.64676210     0.27800
C1036       C  0.84834976  0.04483662  0.63140716    -0.24800
N1037       N  0.82088893  0.99210535  0.59866473    -0.82100
H1038       H  0.78454828  0.00658092  0.63086187     0.13600
C1039       C  0.78254098  0.04138260  0.66514933     0.03000
N1040       N  0.82871211  0.07133910  0.66248178    -0.80700
H1041       H  0.86645941  0.05508400  0.63215144     0.18400
C1042       C  0.78848067  0.03928745  0.69053507    -0.25600
C1043       C  0.77155232  0.04849754  0.70861245     0.36500
C1044       C  0.74747076  0.05932629  0.70121082    -0.19600
C1045       C  0.73995936  0.05837691  0.67611047    -0.24800
C1046       C  0.75750090  0.05043697  0.65786815     0.27800
H1047       H  0.80749347  0.03213579  0.69625936     0.13600
N1048       N  0.78065415  0.04863079  0.73388928    -0.82100
H1049       H  0.72182809  0.06708560  0.67021654     0.18500
N1050       N  0.74995907  0.05374847  0.63232545    -0.80700
H1051       H  0.78284276  0.03100745  0.73958679     0.34100
H1052       H  0.76654602  0.05602161  0.74557946     0.38600
H1053       H  0.74772640  0.07193502  0.62920597     0.34000
H1054       H  0.76463410  0.04815077  0.62020356     0.30700
H1055       H  0.84690352  0.07988279  0.66019319     0.34100
H1056       H  0.81412401  0.08332201  0.65666605     0.30700
H1057       H  0.81676522  0.97689670  0.60910686     0.38600
H1058       H  0.80469641  0.99540917  0.58699878     0.34100
C1059       C  0.11418568  0.01975527  0.61048518    -0.19700
C1060       C  0.11956649  0.04032575  0.62429871     0.36600
C1061       C  0.14455703  0.04298308  0.63541003    -0.25600
C1062       C  0.16396142  0.02533566  0.63351690     0.03000
C1063       C  0.15915989  0.00528744  0.61895453     0.27800
C1064       C  0.13436654  0.00280809  0.60733138    -0.24800
N1065       N  0.09934588  0.05783614  0.62806255    -0.82100
H1066       H  0.14857667  0.05839863  0.64665354     0.13600
C1067       C  0.18808760  0.02777887  0.64884610     0.03000
N1068       N  0.17926294  0.98748453  0.61633157    -0.80700
H1069       H  0.13034060  0.98710468  0.59654693     0.18400
C1070       C  0.18581753  0.02250226  0.67417292    -0.25600
C1071       C  0.20294013  0.03265605  0.69157119     0.36500
C1072       C  0.22355070  0.04764093  0.68322075    -0.19600
C1073       C  0.22826069  0.04965700  0.65761732    -0.24800
C1074       C  0.21031151  0.04051937  0.64029322     0.27800
H1075       H  0.16874220  0.01270145  0.68072287     0.13600
N1076       N  0.19679068  0.02968082  0.71738932    -0.82100
H1077       H  0.24383129  0.06131276  0.65109088     0.18500
N1078       N  0.21402326  0.04625552  0.61453841    -0.80700
H1079       H  0.19856927  0.01166365  0.72163053     0.34100
H1080       H  0.21043968  0.03837588  0.72864746     0.38600
H1081       H  0.21134272  0.06451547  0.61241886     0.34000
H1082       H  0.19990698  0.03802149  0.60336035     0.30700
H1083       H  0.18253082  0.97983549  0.63378142     0.34100
H1084       H  0.17259209  0.97393011  0.60479654     0.30700
H1085       H  0.08438325  0.04999124  0.63862386     0.38600
H1086       H  0.10670198  0.07194129  0.63846053     0.34100
C1087       C  0.04130714  0.96190663  0.61036203    -0.19700
C1088       C  0.05714275  0.94150635  0.60748693     0.36600
C1089       C  0.05201276  0.92112651  0.62163222    -0.25600
C1090       C  0.03097305  0.92051055  0.63842837     0.03000
C1091       C  0.01370612  0.94018188  0.63978216     0.27800
C1092       C  0.01915223  0.96077836  0.62585025    -0.24800
N1093       N  0.07905464  0.94176044  0.59072738    -0.82100
H1094       H  0.06508198  0.90600200  0.62007402     0.13600
C1095       C  0.02726897  0.89938337  0.65470436     0.03000
N1096       N  0.99098224  0.93927134  0.65563961    -0.80700
H1097       H  0.00693517  0.97637830  0.62810842     0.18400
C1098       C  0.02619953  0.90231803  0.68051664    -0.25600
C1099       C  0.01803031  0.88382110  0.69618309     0.36500
C1100       C  0.01082706  0.86188530  0.68578609    -0.19600
C1101       C  0.01582290  0.85795726  0.66053834    -0.24800
C1102       C  0.02334749  0.87664325  0.64473082     0.27800
H1103       H  0.03022204  0.91953271  0.68840304     0.13600
N1104       N  0.01502293  0.88847756  0.72215274    -0.82100
H1105       H  0.01007714  0.84117787  0.65252703     0.18500
N1106       N  0.02494729  0.87302365  0.61843765    -0.80700
H1107       H  0.03374523  0.89272237  0.72916530     0.34100
H1108       H  0.00905786  0.87324687  0.73168365     0.38600
H1109       H  0.02140071  0.85529081  0.61414338     0.34000
H1110       H  0.00976665  0.88285053  0.61004468     0.30700
H1111       H  0.98046481  0.95519519  0.65458972     0.34100
H1112       H  0.97842432  0.92611546  0.64880509     0.30700
H1113       H  0.09627512  0.93799020  0.60084858     0.38600
H1114       H  0.07623634  0.92819628  0.57792302     0.34100
C1115       C  0.38724128  0.18025553  0.15735957    -0.19700
C1116       C  0.38675430  0.19634680  0.17736381     0.36600
C1117       C  0.37303192  0.19029243  0.19916504    -0.25600
C1118       C  0.36083443  0.16814256  0.20182645     0.03000
C1119       C  0.36362389  0.15119257  0.18278068     0.27800
C1120       C  0.37632266  0.15763065  0.16073443    -0.24800
N1121       N  0.39991638  0.21883185  0.17534722    -0.82100
H1122       H  0.37154490  0.20298875  0.21403754     0.13600
C1123       C  0.34517306  0.16292532  0.22441493     0.03000
N1124       N  0.35347604  0.12745648  0.18486091    -0.80700
H1125       H  0.37665460  0.14501472  0.14572464     0.18400
C1126       C  0.31755877  0.16077746  0.22240344    -0.25600
C1127       C  0.30272862  0.14995981  0.24127549     0.36500
C1128       C  0.31581435  0.14150052  0.26284922    -0.19600
C1129       C  0.34291470  0.14639802  0.26599783    -0.24800
C1130       C  0.35782176  0.15677692  0.24683987     0.27800
H1131       H  0.30777242  0.16582298  0.20523780     0.13600
N1132       N  0.27490373  0.14629102  0.23713987    -0.82100
H1133       H  0.35304195  0.13955655  0.28229728     0.18500
N1134       N  0.38607663  0.15897080  0.24912923    -0.80700
H1135       H  0.27286908  0.13436938  0.22253853     0.34100
H1136       H  0.26588392  0.13862757  0.25259691     0.38600
H1137       H  0.39250163  0.15257193  0.26636577     0.34000
H1138       H  0.39063293  0.17700730  0.24869489     0.30700
H1139       H  0.36955502  0.11587550  0.18351269     0.34100
H1140       H  0.34509996  0.12413698  0.20216111     0.30700
H1141       H  0.42017589  0.21549393  0.17355863     0.38600
H1142       H  0.39759895  0.22855598  0.19159853     0.34100
C1143       C  0.32242318  0.35140788  0.05949657    -0.19700
C1144       C  0.34589864  0.34882234  0.07361535     0.36600
C1145       C  0.35419973  0.32604993  0.08099455    -0.25600
C1146       C  0.34051806  0.30565550  0.07329232     0.03000
C1147       C  0.31650978  0.30849938  0.05994171     0.27800
C1148       C  0.30711139  0.33122233  0.05455004    -0.24800
N1149       N  0.36256280  0.36866260  0.07931704    -0.82100
H1150       H  0.37243990  0.32418675  0.09148457     0.13600
C1151       C  0.35249675  0.28180714  0.07780971     0.03000
N1152       N  0.30278044  0.28890405  0.04910808    -0.80700
H1153       H  0.28946591  0.33295191  0.04317819     0.18400
C1154       C  0.33787332  0.26438341  0.09028334    -0.25600
C1155       C  0.34835238  0.24170737  0.09467376     0.36500
C1156       C  0.37480085  0.23663917  0.08783468    -0.19600
C1157       C  0.38934706  0.25388089  0.07498934    -0.24800
C1158       C  0.37842411  0.27635622  0.06978515     0.27800
H1159       H  0.31833730  0.26859689  0.09712450     0.13600
N1160       N  0.33236556  0.22385975  0.10647480    -0.82100
H1161       H  0.40960600  0.25010876  0.06981791     0.18500
N1162       N  0.39371943  0.29383496  0.05674957    -0.80700
H1163       H  0.31349552  0.23041912  0.11039786     0.34100
H1164       H  0.32978687  0.21011403  0.09384045     0.38600
H1165       H  0.41222828  0.28703387  0.05191480     0.34000
H1166       H  0.38372641  0.29764388  0.04022408     0.30700
H1167       H  0.29526370  0.27798777  0.06304836     0.34100
H1168       H  0.31608272  0.27929033  0.03832315     0.30700
H1169       H  0.35398791  0.38446619  0.07309226     0.38600
H1170       H  0.36368233  0.36987295  0.09861221     0.34100
C1171       C  0.31836539  0.05607585  0.26680243    -0.19700
C1172       C  0.30403619  0.04491981  0.24756508     0.36600
C1173       C  0.31788943  0.03360245  0.22860862    -0.25600
C1174       C  0.34564641  0.03396881  0.22788458     0.03000
C1175       C  0.35992921  0.04346153  0.24797499     0.27800
C1176       C  0.34603925  0.05358648  0.26773578    -0.24800
N1177       N  0.27569418  0.04646086  0.24552213    -0.82100
H1178       H  0.30689871  0.02626442  0.21317262     0.13600
C1179       C  0.35888907  0.02837782  0.20420237     0.03000
N1180       N  0.38834160  0.04476776  0.24719742    -0.80700
H1181       H  0.35699472  0.06260196  0.28217357     0.18400
C1182       C  0.35410911  0.04335936  0.18377386    -0.25600
C1183       C  0.36489396  0.03853716  0.16041311     0.36500
C1184       C  0.38138676  0.01859239  0.15760353    -0.19600
C1185       C  0.38654325  0.00385226  0.17821325    -0.24800
C1186       C  0.37531100  0.00842334  0.20147329     0.27800
H1187       H  0.34135472  0.05862648  0.18600536     0.13600
N1188       N  0.35836163  0.05328329  0.13942093    -0.82100
H1189       H  0.39894015  0.98836413  0.17594594     0.18500
N1190       N  0.37938234  0.99223881  0.22183478    -0.80700
H1191       H  0.34606942  0.06724018  0.14470862     0.34100
H1192       H  0.34740968  0.04302900  0.12700897     0.38600
H1193       H  0.39069480  0.97774900  0.21622854     0.34000
H1194       H  0.39060472  0.00084852  0.23531016     0.30700
H1195       H  0.39347483  0.05614459  0.23262252     0.34100
H1196       H  0.39579854  0.05235200  0.26340072     0.30700
H1197       H  0.26743398  0.05490961  0.26076222     0.38600
H1198       H  0.27125361  0.05683230  0.22991333     0.34100
C1199       C  0.38482239  0.95670917  0.09367683    -0.19700
C1200       C  0.38684540  0.93677286  0.10959611     0.36600
C1201       C  0.37350195  0.91574555  0.10371238    -0.25600
C1202       C  0.35823424  0.91411830  0.08204636     0.03000
C1203       C  0.35735408  0.93364060  0.06550124     0.27800
C1204       C  0.37052438  0.95472639  0.07152126    -0.24800
N1205       N  0.40216930  0.93794861  0.13195933    -0.82100
H1206       H  0.37462295  0.90081029  0.11639374     0.13600
C1207       C  0.34335967  0.89200013  0.07648849     0.03000
N1208       N  0.34314751  0.93189176  0.04252755    -0.80700
H1209       H  0.36876007  0.96996967  0.05931048     0.18400
C1210       C  0.31610435  0.89340971  0.07128233    -0.25600
C1211       C  0.30256780  0.87435618  0.06042508     0.36500
C1212       C  0.31632433  0.85317209  0.05574104    -0.19600
C1213       C  0.34259405  0.85073401  0.06404375    -0.24800
C1214       C  0.35647134  0.87009100  0.07391525     0.27800
H1215       H  0.30589411  0.91007198  0.07388002     0.13600
N1216       N  0.27556332  0.87706385  0.05230860    -0.82100
H1217       H  0.35322051  0.83456609  0.05995609     0.18500
N1218       N  0.38425096  0.86805785  0.07948030    -0.80700
H1219       H  0.26825543  0.89366091  0.05730933     0.34100
H1220       H  0.27531327  0.87667854  0.03294286     0.38600
H1221       H  0.39083533  0.85075563  0.07658353     0.34000
H1222       H  0.39446028  0.87883387  0.06691961     0.30700
H1223       H  0.34416793  0.94784760  0.03263928     0.34100
H1224       H  0.35308572  0.91927172  0.03203172     0.30700
H1225       H  0.38966693  0.93414213  0.14685579     0.38600
H1226       H  0.41667385  0.92476345  0.13134350     0.34100
C1227       C  0.32284908  0.04638039  0.78508865    -0.19700
C1228       C  0.35067832  0.04373565  0.78478747     0.36600
C1229       C  0.36381647  0.03557080  0.80613363    -0.25600
C1230       C  0.34962769  0.02940648  0.82753006     0.03000
C1231       C  0.32170270  0.02863442  0.82645044     0.27800
C1232       C  0.30855406  0.03694581  0.80507300    -0.24800
N1233       N  0.36615732  0.05141809  0.76395954    -0.82100
H1234       H  0.38526571  0.03564175  0.80654846     0.13600
C1235       C  0.36398163  0.02565712  0.85139621     0.03000
N1236       N  0.30686180  0.02081098  0.84764470    -0.80700
H1237       H  0.28721305  0.03898174  0.80533669     0.18400
C1238       C  0.35730628  0.03960763  0.87188790    -0.25600
C1239       C  0.36933035  0.03598354  0.89518196     0.36500
C1240       C  0.38882860  0.01820427  0.89796527    -0.19600
C1241       C  0.39632265  0.00499845  0.87712614    -0.24800
C1242       C  0.38399150  0.00842888  0.85394209     0.27800
H1243       H  0.34223297  0.05314391  0.86976981     0.13600
N1244       N  0.36051454  0.04921248  0.91624643    -0.82100
H1245       H  0.41111490  0.99122138  0.87926177     0.18500
N1246       N  0.39105106  0.99395454  0.83320795    -0.80700
H1247       H  0.34405448  0.05957429  0.91154856     0.34100
H1248       H  0.37550521  0.06113861  0.92084057     0.38600
H1249       H  0.40602790  0.98202482  0.83817129     0.34000
H1250       H  0.37447147  0.98383117  0.82851528     0.30700
H1251       H  0.28653751  0.02158897  0.84395194     0.34100
H1252       H  0.31147191  0.00298918  0.85074540     0.30700
H1253       H  0.35394539  0.05639983  0.74911806     0.38600
H1254       H  0.37677665  0.06642438  0.76931284     0.34100
C1255       C  0.39376443  0.95337655  0.95906598    -0.19700
C1256       C  0.40566613  0.93489145  0.94553396     0.36600
C1257       C  0.39324499  0.91253834  0.94423142    -0.25600
C1258       C  0.36874528  0.90839239  0.95569602     0.03000
C1259       C  0.35765469  0.92651959  0.97040156     0.27800
C1260       C  0.37034982  0.94869737  0.97205765    -0.24800
N1261       N  0.42963368  0.93940882  0.93204636    -0.82100
H1262       H  0.40213814  0.89862253  0.93336378     0.13600
C1263       C  0.35519507  0.88483112  0.95334738     0.03000
N1264       N  0.33277149  0.92267962  0.98260544    -0.80700
H1265       H  0.36087720  0.96295498  0.98199159     0.18400
C1266       C  0.36883663  0.86422215  0.96060169    -0.25600
C1267       C  0.35500085  0.84353088  0.96715128     0.36500
C1268       C  0.32696987  0.84388937  0.96780921    -0.19600
C1269       C  0.31380264  0.86270916  0.95590409    -0.24800
C1270       C  0.32773722  0.88290203  0.94788443     0.27800
H1271       H  0.39007922  0.86477383  0.96342321     0.13600
N1272       N  0.36972886  0.82336508  0.97592383    -0.82100
H1273       H  0.29234957  0.86299425  0.95546802     0.18500
N1274       N  0.31318209  0.90172284  0.93597728    -0.80700
H1275       H  0.37895783  0.82803183  0.99255985     0.34100
H1276       H  0.35703271  0.80921620  0.97978738     0.38600
H1277       H  0.30457883  0.89477245  0.91995133     0.34000
H1278       H  0.32597039  0.91502580  0.92983211     0.30700
H1279       H  0.32706928  0.93763295  0.99251130     0.34100
H1280       H  0.33512225  0.90872187  0.99523684     0.30700
H1281       H  0.44445212  0.94329854  0.94497808     0.38600
H1282       H  0.43573659  0.92422034  0.92271752     0.34100
C1283       C  0.32126516  0.35164184  0.97818423    -0.19700
C1284       C  0.30721219  0.33038760  0.98202257     0.36600
C1285       C  0.31958121  0.30875980  0.97708188    -0.25600
C1286       C  0.34513209  0.30783224  0.96686427     0.03000
C1287       C  0.35709075  0.32925456  0.95914154     0.27800
C1288       C  0.34538769  0.35099426  0.96542909    -0.24800
N1289       N  0.28176621  0.33082396  0.99385152    -0.82100
H1290       H  0.30974198  0.29256469  0.98266395     0.13600
C1291       C  0.35847116  0.28423691  0.96491851     0.03000
N1292       N  0.38126113  0.32908370  0.94539665    -0.80700
H1293       H  0.35622114  0.36727476  0.96225440     0.18400
C1294       C  0.34324965  0.26496563  0.95699560    -0.25600
C1295       C  0.35362507  0.24204578  0.95657568     0.36500
C1296       C  0.38070988  0.23822907  0.96211407    -0.19600
C1297       C  0.39593820  0.25713095  0.97093227    -0.24800
C1298       C  0.38487890  0.28002832  0.97304570     0.27800
H1299       H  0.32292425  0.26773869  0.95116364     0.13600
N1300       N  0.33682752  0.22249363  0.95001551    -0.82100
H1301       H  0.41657431  0.25416556  0.97556693     0.18500
N1302       N  0.40036263  0.29886282  0.98340892    -0.80700
H1303       H  0.31750554  0.22821981  0.94633644     0.34100
H1304       H  0.33581928  0.21117950  0.96540275     0.38600
H1305       H  0.39065092  0.30485212  0.99918777     0.34000
H1306       H  0.41890855  0.29264844  0.98919302     0.30700
H1307       H  0.37780379  0.33775826  0.92850745     0.34100
H1308       H  0.39532556  0.33891849  0.95517953     0.30700
H1309       H  0.27457038  0.31365226  0.99653901     0.38600
H1310       H  0.26855971  0.33927841  0.98171990     0.34100
C1311       C  0.31065524  0.12953859  0.79592548    -0.19700
C1312       C  0.29832245  0.12992970  0.81932019     0.36600
C1313       C  0.31057946  0.14154536  0.83904365    -0.25600
C1314       C  0.33505151  0.15301236  0.83598181     0.03000
C1315       C  0.34617335  0.15451033  0.81202970     0.27800
C1316       C  0.33398410  0.14250575  0.79226763    -0.24800
N1317       N  0.27434456  0.11711185  0.82394627    -0.82100
H1318       H  0.30175989  0.14020544  0.85725865     0.13600
C1319       C  0.34962365  0.16159748  0.85829378     0.03000
N1320       N  0.37029940  0.16744874  0.80811275    -0.80700
H1321       H  0.34366979  0.14183430  0.77441381     0.18400
C1322       C  0.37596613  0.15432058  0.86252022    -0.25600
C1323       C  0.39010562  0.16140763  0.88380201     0.36500
C1324       C  0.37731840  0.17529768  0.90172863    -0.19600
C1325       C  0.35081391  0.18211242  0.89764740    -0.24800
C1326       C  0.33707763  0.17590044  0.87600924     0.27800
H1327       H  0.38554744  0.14301408  0.84915134     0.13600
N1328       N  0.41741682  0.15489669  0.88702934    -0.82100
H1329       H  0.34075187  0.19260250  0.91139513     0.18500
N1330       N  0.31051150  0.18427188  0.87186270    -0.80700
H1331       H  0.42386043  0.14471299  0.87213192     0.34100
H1332       H  0.42858779  0.17046955  0.88669961     0.38600
H1333       H  0.30415017  0.19457031  0.88670715     0.34000
H1334       H  0.31082730  0.19541209  0.85630538     0.30700
H1335       H  0.37598611  0.16661382  0.78953830     0.34100
H1336       H  0.36639519  0.18524264  0.81181455     0.30700
H1337       H  0.25992596  0.12317665  0.81146195     0.38600
H1338       H  0.27765658  0.09915167  0.82064186     0.34100
C1339       C  0.55777410  0.23982687  0.09102598    -0.19700
C1340       C  0.57783093  0.24267545  0.07323053     0.36600
C1341       C  0.59181234  0.26413770  0.07197441    -0.25600
C1342       C  0.58582597  0.28310117  0.08769443     0.03000
C1343       C  0.56474945  0.28068123  0.10460997     0.27800
C1344       C  0.55096929  0.25904589  0.10611332    -0.24800
N1345       N  0.58515419  0.22319568  0.05771155    -0.82100
H1346       H  0.60796145  0.26592128  0.05898811     0.13600
C1347       C  0.60164064  0.30534564  0.08559154     0.03000
N1348       N  0.55834203  0.29970738  0.12105382    -0.80700
H1349       H  0.53600609  0.25659079  0.12022575     0.18400
C1350       C  0.58866847  0.32689514  0.08090359    -0.25600
C1351       C  0.60279443  0.34697681  0.07323923     0.36500
C1352       C  0.63051303  0.34537640  0.06956581    -0.19600
C1353       C  0.64381413  0.32491190  0.07760105    -0.24800
C1354       C  0.62963791  0.30480843  0.08552619     0.27800
H1355       H  0.56723970  0.32769409  0.08122234     0.13600
N1356       N  0.58816742  0.36793015  0.06656034    -0.82100
H1357       H  0.66498192  0.32357726  0.07471664     0.18500
N1358       N  0.64344248  0.28335899  0.09196443    -0.80700
H1359       H  0.57670361  0.36403457  0.05092986     0.34100
H1360       H  0.60091353  0.38174444  0.06168055     0.38600
H1361       H  0.66390812  0.28576824  0.09059988     0.34000
H1362       H  0.63946817  0.27962441  0.11057863     0.30700
H1363       H  0.54245498  0.29503980  0.13243389     0.34100
H1364       H  0.57465524  0.30231411  0.13271502     0.30700
H1365       H  0.56909658  0.21970390  0.04601357     0.38600
H1366       H  0.60091625  0.22792315  0.04620523     0.34100
C1367       C  0.57315411  0.17491293  0.15068622    -0.19700
C1368       C  0.57374093  0.18781992  0.17303927     0.36600
C1369       C  0.59140004  0.18110861  0.19209399    -0.25600
C1370       C  0.60791676  0.16125551  0.18977334     0.03000
C1371       C  0.60569973  0.14722525  0.16823244     0.27800
C1372       C  0.58881916  0.15448293  0.14876791    -0.24800
N1373       N  0.55632677  0.20767727  0.17631523    -0.82100
H1374       H  0.59232644  0.19148399  0.20886923     0.13600
C1375       C  0.62590160  0.15438903  0.21075480     0.03000
N1376       N  0.62033066  0.12549328  0.16631208    -0.80700
H1377       H  0.58826586  0.14435216  0.13181471     0.18400
C1378       C  0.61548149  0.15250675  0.23478134    -0.25600
C1379       C  0.63002838  0.14172082  0.25405977     0.36500
C1380       C  0.65536039  0.13241834  0.24914952    -0.19600
C1381       C  0.66706859  0.13693389  0.22607989    -0.24800
C1382       C  0.65273841  0.14828383  0.20692869     0.27800
H1383       H  0.59521765  0.15784784  0.23811451     0.13600
N1384       N  0.61845291  0.13860426  0.27816788    -0.82100
H1385       H  0.68655381  0.12979447  0.22235340     0.18500
N1386       N  0.66490072  0.15268321  0.18331744    -0.80700
H1387       H  0.59999599  0.14694615  0.27892931     0.34100
H1388       H  0.61494536  0.12055291  0.28095069     0.38600
H1389       H  0.68461217  0.14701596  0.18351708     0.34000
H1390       H  0.66524473  0.17100593  0.18049902     0.30700
H1391       H  0.61365152  0.11414293  0.18031960     0.34100
H1392       H  0.61627915  0.11716643  0.14948304     0.30700
H1393       H  0.53690932  0.20128533  0.17585231     0.38600
H1394       H  0.55910747  0.21516994  0.19378683     0.34100
C1395       C  0.55322107  0.24380568  0.96510056    -0.19700
C1396       C  0.54898971  0.26132915  0.94654847     0.36600
C1397       C  0.56227430  0.28318462  0.94776037    -0.25600
C1398       C  0.57973410  0.28794151  0.96728884     0.03000
C1399       C  0.58168896  0.27159133  0.98708674     0.27800
C1400       C  0.56854469  0.24964974  0.98588417    -0.24800
N1401       N  0.53221455  0.25641151  0.92574604    -0.82100
H1402       H  0.55989005  0.29597610  0.93284904     0.13600
C1403       C  0.59633521  0.30973445  0.96704470     0.03000
N1404       N  0.59726099  0.27728102  0.00839955    -0.80700
H1405       H  0.57194183  0.23655442  0.00032597     0.18400
C1406       C  0.58459909  0.33180699  0.97120225    -0.25600
C1407       C  0.60015828  0.35139932  0.97811621     0.36500
C1408       C  0.62790662  0.34867022  0.98094642    -0.19600
C1409       C  0.63976299  0.32777827  0.97250803    -0.24800
C1410       C  0.62418877  0.30814526  0.96580827     0.27800
H1411       H  0.56320327  0.33317985  0.97136776     0.13600
N1412       N  0.58768786  0.37327765  0.98497302    -0.82100
H1413       H  0.66098299  0.32560736  0.97458158     0.18500
N1414       N  0.63645543  0.28602720  0.95961457    -0.80700
H1415       H  0.56730957  0.37249645  0.98157968     0.34100
H1416       H  0.58990473  0.37544597  0.00407932     0.38600
H1417       H  0.65707500  0.28765358  0.95988141     0.34000
H1418       H  0.63109986  0.28212248  0.94136280     0.30700
H1419       H  0.58450446  0.27734934  0.02355353     0.34100
H1420       H  0.61132831  0.26391119  0.01107828     0.30700
H1421       H  0.51725000  0.26919852  0.92518944     0.38600
H1422       H  0.54345805  0.25828028  0.90963338     0.34100
C1423       C  0.57104959  0.17896437  0.90712684    -0.19700
C1424       C  0.57057391  0.19363747  0.88566358     0.36600
C1425       C  0.58662444  0.18807941  0.86532930    -0.25600
C1426       C  0.60185687  0.16739515  0.86516612     0.03000
C1427       C  0.60094453  0.15183645  0.88579705     0.27800
C1428       C  0.58596573  0.15799017  0.90673022    -0.24800
N1429       N  0.55372931  0.21414911  0.88456712    -0.82100
H1430       H  0.58736668  0.20005605  0.84959036     0.13600
C1431       C  0.61878805  0.16199913  0.84343821     0.03000
N1432       N  0.61539733  0.12990609  0.88541963    -0.80700
H1433       H  0.58640464  0.14660986  0.92297417     0.18400
C1434       C  0.64613870  0.15915024  0.84708820    -0.25600
C1435       C  0.66208792  0.14899158  0.82886216     0.36500
C1436       C  0.65040251  0.14153001  0.80638075    -0.19600
C1437       C  0.62373767  0.14700616  0.80160987    -0.24800
C1438       C  0.60771728  0.15716914  0.81993577     0.27800
H1439       H  0.65485952  0.16343758  0.86488458     0.13600
N1440       N  0.68953964  0.14481584  0.83454840    -0.82100
H1441       H  0.61474205  0.14096995  0.78451539     0.18500
N1442       N  0.57985560  0.16044437  0.81552323    -0.80700
H1443       H  0.69043442  0.13205641  0.84866490     0.34100
H1444       H  0.69963451  0.13798939  0.81936783     0.38600
H1445       H  0.57454247  0.15398146  0.79809549     0.34000
H1446       H  0.57625749  0.17863785  0.81476239     0.30700
H1447       H  0.61275104  0.12052008  0.90199693     0.34100
H1448       H  0.60725743  0.11950521  0.87137059     0.30700
H1449       H  0.53414064  0.20826409  0.88554433     0.38600
H1450       H  0.55568665  0.22297712  0.86757444     0.34100
C1451       C  0.54863393  0.95304836  0.96592362    -0.19700
C1452       C  0.54462002  0.93451712  0.94884806     0.36600
C1453       C  0.55897559  0.91322203  0.95152292    -0.25600
C1454       C  0.57653399  0.90977650  0.97145876     0.03000
C1455       C  0.57775409  0.92722055  0.99023393     0.27800
C1456       C  0.56420497  0.94873462  0.98700139    -0.24800
N1457       N  0.52716551  0.93807933  0.92803961    -0.82100
H1458       H  0.55743611  0.89980092  0.93737748     0.13600
C1459       C  0.59472093  0.88891549  0.97182153     0.03000
N1460       N  0.59276843  0.92394349  0.01267064    -0.80700
H1461       H  0.56725123  0.96272456  0.00034724     0.18400
C1462       C  0.62218334  0.89291024  0.97100061    -0.25600
C1463       C  0.64023913  0.87529562  0.97871275     0.36500
C1464       C  0.63066167  0.85312531  0.98673942    -0.19600
C1465       C  0.60359610  0.84799112  0.98353842    -0.24800
C1466       C  0.58539160  0.86583014  0.97666069     0.27800
H1467       H  0.62934699  0.91055720  0.96679255     0.13600
N1468       N  0.66785161  0.88077164  0.98162203    -0.82100
H1469       H  0.59619335  0.83104381  0.99000078     0.18500
N1470       N  0.55742194  0.86121671  0.97719537    -0.80700
H1471       H  0.67166600  0.89814279  0.97585928     0.34100
H1472       H  0.67839814  0.86971832  0.96976806     0.38600
H1473       H  0.55380467  0.84372606  0.98266385     0.34000
H1474       H  0.55028451  0.86282321  0.95906024     0.30700
H1475       H  0.57912033  0.92461116  0.02710828     0.34100
H1476       H  0.60117743  0.90711300  0.01386039     0.30700
H1477       H  0.50808949  0.94053363  0.93501616     0.38600
H1478       H  0.52646350  0.92290238  0.91710113     0.34100
C1479       C  0.65383848  0.05652740  0.80835410    -0.19700
C1480       C  0.66482290  0.05277122  0.83222744     0.36600
C1481       C  0.64925467  0.04264983  0.85094222    -0.25600
C1482       C  0.62315555  0.03512406  0.84635463     0.03000
C1483       C  0.61347375  0.03603936  0.82157985     0.27800
C1484       C  0.62866184  0.04728096  0.80314227    -0.24800
N1485       N  0.69092198  0.06091349  0.83862319    -0.82100
H1486       H  0.65721068  0.04200454  0.86961221     0.13600
C1487       C  0.60603891  0.02852380  0.86798590     0.03000
N1488       N  0.58809482  0.02658237  0.81458507    -0.80700
H1489       H  0.61991552  0.05033808  0.78501677     0.18400
C1490       C  0.58109612  0.03935461  0.87083952    -0.25600
C1491       C  0.56437484  0.03352727  0.89085776     0.36500
C1492       C  0.57349080  0.01780607  0.90948797    -0.19600
C1493       C  0.59889227  0.00778988  0.90711994    -0.24800
C1494       C  0.61485021  0.01239959  0.88637249     0.27800
H1495       H  0.57438505  0.05204844  0.85702883     0.13600
N1496       N  0.53796084  0.04293224  0.89187478    -0.82100
H1497       H  0.60618511  0.99583238  0.92138937     0.18500
N1498       N  0.63981511  0.00045181  0.88374973    -0.80700
H1499       H  0.53427916  0.05405462  0.87666922     0.34100
H1500       H  0.52483036  0.02871186  0.89031085     0.38600
H1501       H  0.64339332  0.98917314  0.89885257     0.34000
H1502       H  0.63847747  0.98972226  0.86810094     0.30700
H1503       H  0.59128168  0.01453269  0.80030275     0.34100
H1504       H  0.57993056  0.01653029  0.82892130     0.30700
H1505       H  0.70107223  0.06706257  0.82303982     0.38600
H1506       H  0.68884962  0.07518146  0.85067977     0.34100
C1507       C  0.55812802  0.01681410  0.15939469    -0.19700
C1508       C  0.55577157  0.00235261  0.18082103     0.36600
C1509       C  0.57134284  0.00717398  0.20187351    -0.25600
C1510       C  0.58828419  0.02677677  0.20237318     0.03000
C1511       C  0.58912232  0.04226792  0.18172207     0.27800
C1512       C  0.57419417  0.03705033  0.16037637    -0.24800
N1513       N  0.53783233  0.98261261  0.18092309    -0.82100
H1514       H  0.57048488  0.99551213  0.21788495     0.13600
C1515       C  0.60606327  0.03064935  0.22400745     0.03000
N1516       N  0.60576826  0.06288437  0.18232485    -0.80700
H1517       H  0.57605608  0.04822653  0.14407154     0.18400
C1518       C  0.63348348  0.02886709  0.22023079    -0.25600
C1519       C  0.65161167  0.03753316  0.23765552     0.36500
C1520       C  0.64207955  0.04845529  0.25931423    -0.19600
C1521       C  0.61495954  0.04716884  0.26468920    -0.24800
C1522       C  0.59669852  0.03870782  0.24719082     0.27800
H1523       H  0.64083028  0.02220727  0.20277898     0.13600
N1524       N  0.67931650  0.03718281  0.23164996    -0.82100
H1525       H  0.60756482  0.05562299  0.28124220     0.18500
N1526       N  0.56899144  0.04029678  0.25300296    -0.80700
H1527       H  0.68489365  0.01946291  0.22983304     0.34100
H1528       H  0.69072778  0.04381557  0.24620684     0.38600
H1529       H  0.56438403  0.05819382  0.25523048     0.34000
H1530       H  0.55703022  0.03422820  0.23862445     0.30700
H1531       H  0.60433205  0.07231674  0.16562818     0.34100
H1532       H  0.59854219  0.07398629  0.19615105     0.30700
H1533       H  0.51866621  0.98937913  0.17888776     0.38600
H1534       H  0.53843332  0.97379437  0.19802251     0.34100
C1535       C  0.55417279  0.95471348  0.09606569    -0.19700
C1536       C  0.57394874  0.95234911  0.07791209     0.36600
C1537       C  0.58826299  0.93101583  0.07638781    -0.25600
C1538       C  0.58310041  0.91174935  0.09230191     0.03000
C1539       C  0.56270775  0.91381057  0.10992706     0.27800
C1540       C  0.54834411  0.93515635  0.11146027    -0.24800
N1541       N  0.58037629  0.97198271  0.06193676    -0.82100
H1542       H  0.60425049  0.92963639  0.06318303     0.13600
C1543       C  0.60013372  0.89016450  0.09050255     0.03000
N1544       N  0.55763360  0.89478274  0.12708595    -0.80700
H1545       H  0.53361276  0.93713264  0.12583179     0.18400
C1546       C  0.62780899  0.89281164  0.09091881    -0.25600
C1547       C  0.64466572  0.87443860  0.08353291     0.36500
C1548       C  0.63362182  0.85276831  0.07557404    -0.19600
C1549       C  0.60639228  0.84890517  0.07914223    -0.24800
C1550       C  0.58946604  0.86760984  0.08557623     0.27800
H1551       H  0.63633406  0.90988274  0.09529323     0.13600
N1552       N  0.67252565  0.87927571  0.08169921    -0.82100
H1553       H  0.59765223  0.83247848  0.07284721     0.18500
N1554       N  0.56139917  0.86416723  0.08457022    -0.80700
H1555       H  0.67940384  0.88308750  0.09952732     0.34100
H1556       H  0.68290537  0.86427872  0.07610980     0.38600
H1557       H  0.55637095  0.85865690  0.06670515     0.34000
H1558       H  0.55660553  0.85049306  0.09691833     0.30700
H1559       H  0.57454631  0.89257489  0.13811169     0.34100
H1560       H  0.54217218  0.89918560  0.13900834     0.30700
H1561       H  0.58841362  0.98535039  0.07293768     0.38600
H1562       H  0.59507291  0.96721826  0.04934017     0.34100
C1563       C  0.01690446  0.44234847  0.27305093    -0.19700
C1564       C  0.01523863  0.43113726  0.24979230     0.36600
C1565       C  0.02291763  0.44331667  0.22833673    -0.25600
C1566       C  0.03260603  0.46660180  0.22941480     0.03000
C1567       C  0.03718927  0.47682245  0.25286864     0.27800
C1568       C  0.02935095  0.46454664  0.27445589    -0.24800
N1569       N  0.00332281  0.40827627  0.24720423    -0.82100
H1570       H  0.01941694  0.43510809  0.21054948     0.13600
C1571       C  0.03647512  0.48032412  0.20589757     0.03000
N1572       N  0.04856108  0.50006714  0.25459647    -0.80700
H1573       H  0.03024401  0.47340669  0.29217557     0.18400
C1574       C  0.02468610  0.50281221  0.20284344    -0.25600
C1575       C  0.02859480  0.51647155  0.18111430     0.36500
C1576       C  0.04402866  0.50713858  0.16176184    -0.19600
C1577       C  0.05385939  0.48389178  0.16418481    -0.24800
C1578       C  0.05101313  0.47076005  0.18613297     0.27800
H1579       H  0.01268003  0.50987027  0.21763548     0.13600
N1580       N  0.01741717  0.53979146  0.17893426    -0.82100
H1581       H  0.06491112  0.47620524  0.14908444     0.18500
N1582       N  0.06352583  0.44798925  0.18863448    -0.80700
H1583       H  0.00636048  0.54384491  0.19467148     0.34100
H1584       H  0.03307322  0.55186916  0.17828031     0.38600
H1585       H  0.07338078  0.44346430  0.17234885     0.34000
H1586       H  0.07799622  0.44933624  0.20246888     0.30700
H1587       H  0.05021976  0.50517605  0.27311687     0.34100
H1588       H  0.06781858  0.49914251  0.24765701     0.30700
H1589       H  0.01375463  0.39633828  0.25847621     0.38600
H1590       H  0.98377281  0.40905387  0.25340831     0.34100
C1591       C  0.11450425  0.51932639  0.10088659    -0.19700
C1592       C  0.13747024  0.52089574  0.11587764     0.36600
C1593       C  0.15995116  0.50733798  0.11000943    -0.25600
C1594       C  0.16004100  0.49273728  0.08915055     0.03000
C1595       C  0.13800132  0.49280838  0.07297169     0.27800
C1596       C  0.11538414  0.50599232  0.07907383    -0.24800
N1597       N  0.13749337  0.53571032  0.13739739    -0.82100
H1598       H  0.17707316  0.50751622  0.12217244     0.13600
C1599       C  0.18253892  0.47643484  0.08471372     0.03000
N1600       N  0.13842100  0.47879214  0.05084554    -0.80700
H1601       H  0.09784695  0.50475197  0.06751210     0.18400
C1602       C  0.17793806  0.45195822  0.08596126    -0.25600
C1603       C  0.19612319  0.43583566  0.07617000     0.36500
C1604       C  0.21959356  0.44444074  0.06509926    -0.19600
C1605       C  0.22572093  0.46861137  0.06695824    -0.24800
C1606       C  0.20720092  0.48473647  0.07610316     0.27800
H1607       H  0.15913922  0.44545889  0.09282305     0.13600
N1608       N  0.18890593  0.41124027  0.07535841    -0.82100
H1609       H  0.24339228  0.47540169  0.05806959     0.18500
N1610       N  0.21289439  0.50950609  0.07416684    -0.80700
H1611       H  0.18664683  0.40537260  0.09364492     0.34100
H1612       H  0.20418181  0.40108283  0.06795090     0.38600
H1613       H  0.21200368  0.51681756  0.09185739     0.34000
H1614       H  0.19835045  0.51749758  0.06306753     0.30700
H1615       H  0.12061656  0.48059836  0.04104514     0.34100
H1616       H  0.15327951  0.48558069  0.03939153     0.30700
H1617       H  0.13513678  0.55319026  0.13127260     0.38600
H1618       H  0.15581680  0.53485989  0.14646145     0.34100
C1619       C  0.09540411  0.50020486  0.93602146    -0.19700
C1620       C  0.11592251  0.50958665  0.95092531     0.36600
C1621       C  0.13809365  0.49542253  0.95688307    -0.25600
C1622       C  0.14087128  0.47237888  0.94753181     0.03000
C1623       C  0.12057183  0.46310710  0.93244212     0.27800
C1624       C  0.09795920  0.47686404  0.92730671    -0.24800
N1625       N  0.11454411  0.53356019  0.95953828    -0.82100
H1626       H  0.15340510  0.50245486  0.96886609     0.13600
C1627       C  0.16445431  0.45784768  0.95483546     0.03000
N1628       N  0.12312969  0.43983954  0.92212119    -0.80700
H1629       H  0.08226928  0.46932309  0.91613133     0.18400
C1630       C  0.16062562  0.43546376  0.96577346    -0.25600
C1631       C  0.18178767  0.42305924  0.97681480     0.36500
C1632       C  0.20716736  0.43340664  0.97740933    -0.19600
C1633       C  0.21158416  0.45461268  0.96442865    -0.24800
C1634       C  0.19049185  0.46685761  0.95291780     0.27800
H1635       H  0.14077733  0.42836378  0.96726071     0.13600
N1636       N  0.17722048  0.40107809  0.98968868    -0.82100
H1637       H  0.23103718  0.46266203  0.96518335     0.18500
N1638       N  0.19518076  0.48893635  0.94029421    -0.80700
H1639       H  0.15739370  0.39599825  0.98801702     0.34100
H1640       H  0.18842656  0.38807591  0.98089309     0.38600
H1641       H  0.21531864  0.49319850  0.94075320     0.34000
H1642       H  0.19013251  0.48660263  0.92166481     0.30700
H1643       H  0.10649709  0.43561993  0.91143199     0.34100
H1644       H  0.13927244  0.44014289  0.91006817     0.30700
H1645       H  0.11518125  0.54471064  0.94400030     0.38600
H1646       H  0.13112081  0.53763936  0.97036647     0.34100
C1647       C  0.03186524  0.51988698  0.86922133    -0.19700
C1648       C  0.01236369  0.50253251  0.86397007     0.36600
C1649       C  0.01136182  0.49229248  0.84030785    -0.25600
C1650       C  0.02963871  0.49838899  0.82174106     0.03000
C1651       C  0.04814574  0.51648598  0.82647131     0.27800
C1652       C  0.04887119  0.52717239  0.85000829    -0.24800
N1653       N  0.99453200  0.49358717  0.88250819    -0.82100
H1654       H  0.99672618  0.47870590  0.83667235     0.13600
C1655       C  0.02931099  0.48516041  0.79780389     0.03000
N1656       N  0.06704677  0.52306513  0.80782747    -0.80700
H1657       H  0.06422997  0.53997853  0.85405750     0.18400
C1658       C  0.02477470  0.49727730  0.77537335    -0.25600
C1659       C  0.01884366  0.48493534  0.75351788     0.36500
C1660       C  0.01671357  0.45991878  0.75416592    -0.19600
C1661       C  0.02543858  0.44785882  0.77555984    -0.24800
C1662       C  0.03152178  0.46022986  0.79745628     0.27800
H1663       H  0.02386939  0.51643674  0.77518602     0.13600
N1664       N  0.01202782  0.49828553  0.73163564    -0.82100
H1665       H  0.02392181  0.42873064  0.77624506     0.18500
N1666       N  0.03840493  0.44753918  0.81975785    -0.80700
H1667       H  0.99431784  0.50722624  0.73512295     0.34100
H1668       H  0.00858182  0.48702664  0.71668808     0.38600
H1669       H  0.03893061  0.42932745  0.81651123     0.34000
H1670       H  0.05764656  0.45251352  0.82468438     0.30700
H1671       H  0.07941420  0.53654551  0.81424621     0.34100
H1672       H  0.07914907  0.50838003  0.80468746     0.30700
H1673       H  0.99692343  0.50219918  0.89937444     0.38600
H1674       H  0.97526498  0.49731775  0.87651434     0.34100
C1675       C  0.84520090  0.50814334  0.93781383    -0.19700
C1676       C  0.82573054  0.51712736  0.95398575     0.36600
C1677       C  0.80426281  0.50255651  0.96114546    -0.25600
C1678       C  0.80115378  0.47949804  0.95176296     0.03000
C1679       C  0.81972886  0.47117938  0.93458220     0.27800
C1680       C  0.84169767  0.48505997  0.92849382    -0.24800
N1681       N  0.82745299  0.54101719  0.96274908    -0.82100
H1682       H  0.78987062  0.50923243  0.97416669     0.13600
C1683       C  0.77871344  0.46428405  0.96039355     0.03000
N1684       N  0.81613962  0.44878469  0.92274230    -0.80700
H1685       H  0.85612873  0.47739941  0.91621671     0.18400
C1686       C  0.75289620  0.47363742  0.96111517    -0.25600
C1687       C  0.73216196  0.46120402  0.97283683     0.36500
C1688       C  0.73691080  0.43831771  0.98253560    -0.19600
C1689       C  0.76199168  0.42811137  0.97958836    -0.24800
C1690       C  0.78311136  0.44120297  0.96983672     0.27800
H1691       H  0.74931559  0.49131687  0.95393526     0.13600
N1692       N  0.70683917  0.47228364  0.97634946    -0.82100
H1693       H  0.76613653  0.41105897  0.98813703     0.18500
N1694       N  0.80938756  0.43180835  0.97189868    -0.80700
H1695       H  0.70652044  0.48905828  0.96803045     0.34100
H1696       H  0.70436002  0.47498103  0.99534058     0.38600
H1697       H  0.80981529  0.41555907  0.96276941     0.34000
H1698       H  0.81341464  0.42859684  0.99065206     0.30700
H1699       H  0.81496959  0.45176183  0.90362547     0.34100
H1700       H  0.83297305  0.43846337  0.92620660     0.30700
H1701       H  0.82563232  0.55227818  0.94736795     0.38600
H1702       H  0.81158296  0.54484638  0.97442315     0.34100
C1703       C  0.91652342  0.50858666  0.87949451    -0.19700
C1704       C  0.91252943  0.48378124  0.87978454     0.36600
C1705       C  0.91389663  0.47100609  0.85767922    -0.25600
C1706       C  0.92161520  0.48186640  0.83543318     0.03000
C1707       C  0.92935476  0.50602529  0.83590426     0.27800
C1708       C  0.92591819  0.51936250  0.85776829    -0.24800
N1709       N  0.90570992  0.47188191  0.90252648    -0.82100
H1710       H  0.90808491  0.45257012  0.85778455     0.13600
C1711       C  0.92110105  0.46781723  0.81193035     0.03000
N1712       N  0.94035213  0.51694971  0.81413670    -0.80700
H1713       H  0.92960204  0.53824487  0.85758798     0.18400
C1714       C  0.90961708  0.47754427  0.79030698    -0.25600
C1715       C  0.91237371  0.46644742  0.76721457     0.36500
C1716       C  0.92646762  0.44487357  0.76568663    -0.19600
C1717       C  0.93326213  0.43311551  0.78785768    -0.24800
C1718       C  0.93214203  0.44486029  0.81066838     0.27800
H1719       H  0.89978728  0.49456830  0.79107499     0.13600
N1720       N  0.90319664  0.47864098  0.74535540    -0.82100
H1721       H  0.94425540  0.41664904  0.78697529     0.18500
N1722       N  0.94461951  0.43428359  0.83192440    -0.80700
H1723       H  0.88266578  0.48044114  0.74686034     0.34100
H1724       H  0.90644825  0.46833873  0.72965788     0.38600
H1725       H  0.96454612  0.43134709  0.82775030     0.34000
H1726       H  0.93571051  0.41785969  0.83517782     0.30700
H1727       H  0.94516823  0.53461619  0.81758455     0.34100
H1728       H  0.95815380  0.50828842  0.81028521     0.30700
H1729       H  0.92177322  0.47360826  0.91466312     0.38600
H1730       H  0.90306903  0.45375527  0.89965637     0.34100
C1731       C  0.91377905  0.52192056  0.17502739    -0.19700
C1732       C  0.93432679  0.50616621  0.18182696     0.36600
C1733       C  0.93416041  0.49542206  0.20554261    -0.25600
C1734       C  0.91367158  0.49974706  0.22249978     0.03000
C1735       C  0.89416854  0.51666590  0.21640193     0.27800
C1736       C  0.89461209  0.52776702  0.19289035    -0.24800
N1737       N  0.95443974  0.50011521  0.16421163    -0.82100
H1738       H  0.94946002  0.48274627  0.21046574     0.13600
C1739       C  0.91274170  0.48560005  0.24600996     0.03000
N1740       N  0.87324485  0.52159871  0.23355834    -0.80700
H1741       H  0.87856593  0.53954482  0.18762140     0.18400
C1742       C  0.91891849  0.49626698  0.26868844    -0.25600
C1743       C  0.92524739  0.48241887  0.28969432     0.36500
C1744       C  0.92596518  0.45738655  0.28781328    -0.19600
C1745       C  0.91513026  0.44700816  0.26648983    -0.24800
C1746       C  0.90875789  0.46088203  0.24545388     0.27800
H1747       H  0.92098616  0.51532898  0.26957049     0.13600
N1748       N  0.93385096  0.49415851  0.31182357    -0.82100
H1749       H  0.91538946  0.42789826  0.26490845     0.18500
N1750       N  0.90003700  0.44986372  0.22294649    -0.80700
H1751       H  0.95174529  0.50266468  0.30790925     0.34100
H1752       H  0.93757851  0.48186517  0.32599453     0.38600
H1753       H  0.89844251  0.43155056  0.22544241     0.34000
H1754       H  0.88094389  0.45609398  0.21910475     0.30700
H1755       H  0.86042567  0.53443548  0.22624650     0.34100
H1756       H  0.86210137  0.50613084  0.23568707     0.30700
H1757       H  0.94535878  0.49084888  0.14979857     0.38600
H1758       H  0.96830733  0.48859194  0.17223116     0.34100
C1759       C  0.85352876  0.50004173  0.10734046    -0.19700
C1760       C  0.83298408  0.50908700  0.09211339     0.36600
C1761       C  0.81051755  0.49497789  0.08726263    -0.25600
C1762       C  0.80760324  0.47234175  0.09799470     0.03000
C1763       C  0.82789134  0.46348981  0.11351580     0.27800
C1764       C  0.85075329  0.47712412  0.11752084    -0.24800
N1765       N  0.83465660  0.53266976  0.08207380    -0.82100
H1766       H  0.79513329  0.50169264  0.07503688     0.13600
C1767       C  0.78411417  0.45753367  0.09143759     0.03000
N1768       N  0.82503692  0.44079011  0.12544016    -0.80700
H1769       H  0.86640867  0.46992049  0.12912423     0.18400
C1770       C  0.78821225  0.43510544  0.08114222    -0.25600
C1771       C  0.76732054  0.42229338  0.07062997     0.36500
C1772       C  0.74149174  0.43212087  0.07019849    -0.19600
C1773       C  0.73690693  0.45341821  0.08268296    -0.24800
C1774       C  0.75796708  0.46622257  0.09336251     0.27800
H1775       H  0.80813768  0.42815161  0.07965714     0.13600
N1776       N  0.77346290  0.40043041  0.05845123    -0.82100
H1777       H  0.71729864  0.46119600  0.08195865     0.18500
N1778       N  0.75311086  0.48855680  0.10505014    -0.80700
H1779       H  0.78488245  0.40449174  0.04287370     0.34100
H1780       H  0.75637576  0.39192231  0.05220243     0.38600
H1781       H  0.73290390  0.49258272  0.10465034     0.34000
H1782       H  0.75845581  0.48676222  0.12370873     0.30700
H1783       H  0.84168189  0.43685147  0.13630828     0.34100
H1784       H  0.80900692  0.44191892  0.13756284     0.30700
H1785       H  0.83442635  0.54441949  0.09693914     0.38600
H1786       H  0.81797444  0.53656521  0.07123896     0.34100
C1787       C  0.03220043  0.69413890  0.15925258    -0.19700
C1788       C  0.03190585  0.71840830  0.15276936     0.36600
C1789       C  0.02908244  0.73548609  0.17127872    -0.25600
C1790       C  0.02524512  0.72890298  0.19611983     0.03000
C1791       C  0.02234444  0.70454608  0.20198951     0.27800
C1792       C  0.02663273  0.68733963  0.18367235    -0.24800
N1793       N  0.03606148  0.72553399  0.12743791    -0.82100
H1794       H  0.03048408  0.75405826  0.16633159     0.13600
C1795       C  0.02245362  0.74782780  0.21519424     0.03000
N1796       N  0.01508928  0.69723335  0.22649720    -0.80700
H1797       H  0.02657456  0.66874286  0.18872136     0.18400
C1798       C  0.00511099  0.76675779  0.21018903    -0.25600
C1799       C  0.99719226  0.78210594  0.22890416     0.36500
C1800       C  0.00633682  0.77843338  0.25343415    -0.19600
C1801       C  0.02645696  0.76177406  0.25771147    -0.24800
C1802       C  0.03524372  0.74686441  0.23871073     0.27800
H1803       H  0.99577711  0.76847527  0.19214609     0.13600
N1804       N  0.97742502  0.79955575  0.22316829    -0.82100
H1805       H  0.03368048  0.75884778  0.27643089     0.18500
N1806       N  0.05639504  0.73057597  0.24422910    -0.80700
H1807       H  0.96019549  0.79570807  0.23305077     0.34100
H1808       H  0.98450280  0.81600440  0.22894158     0.38600
H1809       H  0.07258377  0.74052303  0.25031401     0.34000
H1810       H  0.06289006  0.72223189  0.22818561     0.30700
H1811       H  0.99743193  0.68765730  0.22526735     0.34100
H1812       H  0.02977563  0.68582235  0.23328979     0.30700
H1813       H  0.02011302  0.71916608  0.11702535     0.38600
H1814       H  0.03570656  0.74397334  0.12570473     0.34100
C1815       C  0.10714201  0.68931067  0.10632075    -0.19700
C1816       C  0.12715393  0.67921214  0.09157250     0.36600
C1817       C  0.14909960  0.69299581  0.08413572    -0.25600
C1818       C  0.15203222  0.71666945  0.09169832     0.03000
C1819       C  0.13275971  0.72645273  0.10738163     0.27800
C1820       C  0.11042784  0.71301938  0.11392858    -0.24800
N1821       N  0.12554063  0.65495154  0.08429923    -0.82100
H1822       H  0.16370970  0.68523262  0.07201701     0.13600
C1823       C  0.17403094  0.73165972  0.08162468     0.03000
N1824       N  0.13584850  0.75015555  0.11648542    -0.80700
H1825       H  0.09522051  0.72149974  0.12477967     0.18400
C1826       C  0.16773253  0.75305663  0.06947757    -0.25600
C1827       C  0.18705796  0.76630859  0.05708327     0.36500
C1828       C  0.21364243  0.75847398  0.05692606    -0.19600
C1829       C  0.22033929  0.73796355  0.07046723    -0.24800
C1830       C  0.20081772  0.72444471  0.08277578     0.27800
H1831       H  0.14728333  0.75877707  0.06822745     0.13600
N1832       N  0.17882165  0.78673213  0.04313325    -0.82100
H1833       H  0.24049873  0.73144752  0.06971697     0.18500
N1834       N  0.20793143  0.70296592  0.09559732    -0.80700
H1835       H  0.18271295  0.78390585  0.02438763     0.34100
H1836       H  0.19007124  0.80117629  0.04901560     0.38600
H1837       H  0.22831839  0.69997963  0.09444432     0.34000
H1838       H  0.20365407  0.70529657  0.11435198     0.30700
H1839       H  0.11997470  0.75478180  0.12783156     0.34100
H1840       H  0.15280283  0.75040114  0.12767613     0.30700
H1841       H  0.12578024  0.65438654  0.06494147     0.38600
H1842       H  0.14245423  0.64622777  0.09089097     0.34100
C1843       C  0.91504541  0.67742639  0.17423044    -0.19700
C1844       C  0.89925325  0.67096898  0.19479713     0.36600
C1845       C  0.90045210  0.68431901  0.21681944    -0.25600
C1846       C  0.91715581  0.70406433  0.21880715     0.03000
C1847       C  0.93497626  0.70896642  0.19920442     0.27800
C1848       C  0.93360304  0.69569880  0.17710409    -0.24800
N1849       N  0.88091185  0.65165425  0.19261500    -0.82100
H1850       H  0.88735484  0.68003002  0.23204313     0.13600
C1851       C  0.91507156  0.72003109  0.24089686     0.03000
N1852       N  0.95424858  0.72752348  0.20168389    -0.80700
H1853       H  0.94573953  0.70075900  0.16143168     0.18400
C1854       C  0.92416184  0.71210217  0.26416510    -0.25600
C1855       C  0.92762209  0.72793506  0.28401410     0.36500
C1856       C  0.92266355  0.75248880  0.28042652    -0.19600
C1857       C  0.90888727  0.75931600  0.25881503    -0.24800
C1858       C  0.90532688  0.74357853  0.23892514     0.27800
H1859       H  0.93048390  0.69387846  0.26642384     0.13600
N1860       N  0.93964629  0.71925854  0.30648396    -0.82100
H1861       H  0.90460393  0.77791236  0.25572507     0.18500
N1862       N  0.89325506  0.75261281  0.21658058    -0.80700
H1863       H  0.95899114  0.71407400  0.30233100     0.34100
H1864       H  0.94095297  0.73275704  0.31957153     0.38600
H1865       H  0.87408238  0.75805081  0.22102362     0.34000
H1866       H  0.89105701  0.73942371  0.20330986     0.30700
H1867       H  0.96637250  0.72825079  0.18604959     0.34100
H1868       H  0.94423535  0.74367910  0.20223481     0.30700
H1869       H  0.89198133  0.63626986  0.18982070     0.38600
H1870       H  0.87060855  0.64917032  0.20918895     0.34100
C1871       C  0.84828646  0.68774201  0.10826353    -0.19700
C1872       C  0.84726970  0.70325897  0.08768679     0.36600
C1873       C  0.82446425  0.71695760  0.08328393    -0.25600
C1874       C  0.80255909  0.71576850  0.09922401     0.03000
C1875       C  0.80310261  0.69967042  0.11932451     0.27800
C1876       C  0.82585152  0.68573803  0.12352252    -0.24800
N1877       N  0.86974734  0.70598505  0.07184409    -0.82100
H1878       H  0.82403100  0.72893987  0.06750178     0.13600
C1879       C  0.77919564  0.73125381  0.09411879     0.03000
N1880       N  0.78088538  0.69801902  0.13578360    -0.80700
H1881       H  0.82646372  0.67379006  0.13932130     0.18400
C1882       C  0.75451119  0.72095673  0.08904051    -0.25600
C1883       C  0.73363934  0.73444144  0.07905208     0.36500
C1884       C  0.73750111  0.75881582  0.07391329    -0.19600
C1885       C  0.76106050  0.76960382  0.08184827    -0.24800
C1886       C  0.78198955  0.75604600  0.09188540     0.27800
H1887       H  0.75200116  0.70200232  0.09114111     0.13600
N1888       N  0.70953170  0.72252437  0.07240832    -0.82100
H1889       H  0.76421959  0.78818457  0.07769460     0.18500
N1890       N  0.80662477  0.76710726  0.09848901    -0.80700
H1891       H  0.71378541  0.71112401  0.05778839     0.34100
H1892       H  0.69523143  0.73451407  0.06605571     0.38600
H1893       H  0.80561204  0.78538559  0.09545707     0.34000
H1894       H  0.80942410  0.76459263  0.11753599     0.30700
H1895       H  0.78441118  0.68531941  0.14960812     0.34100
H1896       H  0.77907534  0.71428522  0.14472141     0.30700
H1897       H  0.86384849  0.70194007  0.05376951     0.38600
H1898       H  0.87552003  0.72374784  0.07212905     0.34100
C1899       C  0.90795405  0.67611586  0.87095184    -0.19700
C1900       C  0.88913298  0.67214758  0.85194890     0.36600
C1901       C  0.89149174  0.68386964  0.82895539    -0.25600
C1902       C  0.91249582  0.69949913  0.82445050     0.03000
C1903       C  0.93252849  0.70201874  0.84263961     0.27800
C1904       C  0.93006054  0.69029966  0.86570313    -0.24800
N1905       N  0.86688767  0.65702820  0.85643686    -0.82100
H1906       H  0.87627139  0.68154527  0.81496515     0.13600
C1907       C  0.91262666  0.71452435  0.80155684     0.03000
N1908       N  0.95467181  0.71737001  0.83797431    -0.80700
H1909       H  0.94439185  0.69367509  0.88025703     0.18400
C1910       C  0.90837114  0.73896551  0.80407548    -0.25600
C1911       C  0.91445761  0.75494612  0.78474859     0.36500
C1912       C  0.92464706  0.74626300  0.76225420    -0.19600
C1913       C  0.92452078  0.72162148  0.75843197    -0.24800
C1914       C  0.91943883  0.70563282  0.77795595     0.27800
H1915       H  0.90243271  0.74575580  0.82193334     0.13600
N1916       N  0.91311139  0.78004127  0.78885386    -0.82100
H1917       H  0.93264320  0.71475017  0.74137829     0.18500
N1918       N  0.92396588  0.68088222  0.77363852    -0.80700
H1919       H  0.90479402  0.78352608  0.80614855     0.34100
H1920       H  0.93245464  0.78659325  0.78950564     0.38600
H1921       H  0.91001231  0.67531467  0.76056274     0.34000
H1922       H  0.92095486  0.67066660  0.78954603     0.30700
H1923       H  0.96751273  0.71752386  0.85322750     0.34100
H1924       H  0.96530876  0.71028310  0.82320871     0.30700
H1925       H  0.86713370  0.64358551  0.84323860     0.38600
H1926       H  0.84962390  0.66695097  0.85369397     0.34100
C1927       C  0.85016405  0.69826277  0.94032486    -0.19700
C1928       C  0.84612308  0.72162068  0.93143678     0.36600
C1929       C  0.82344356  0.73425027  0.93827191    -0.25600
C1930       C  0.80498546  0.72468029  0.95489319     0.03000
C1931       C  0.80929552  0.70153265  0.96443127     0.27800
C1932       C  0.83162986  0.68852502  0.95680743    -0.24800
N1933       N  0.86533314  0.73289232  0.91586450    -0.82100
H1934       H  0.82041507  0.75184021  0.93063330     0.13600
C1935       C  0.78201206  0.73945641  0.96291737     0.03000
N1936       N  0.79118819  0.69137878  0.98202191    -0.80700
H1937       H  0.83449348  0.67062531  0.96364959     0.18400
C1938       C  0.75631701  0.72984565  0.96311995    -0.25600
C1939       C  0.73524587  0.74173229  0.97450985     0.36500
C1940       C  0.73969358  0.76422672  0.98506954    -0.19600
C1941       C  0.76441946  0.77506203  0.98200140    -0.24800
C1942       C  0.78574420  0.76268543  0.97178868     0.27800
H1943       H  0.75289810  0.71236248  0.95565773     0.13600
N1944       N  0.71027288  0.72972991  0.97678693    -0.82100
H1945       H  0.76815057  0.79204342  0.99056426     0.18500
N1946       N  0.81161372  0.77304094  0.97253412    -0.80700
H1947       H  0.70316707  0.72667448  0.95887240     0.34100
H1948       H  0.69622812  0.74050614  0.98527320     0.38600
H1949       H  0.81626358  0.77678563  0.99099354     0.34000
H1950       H  0.81092755  0.78905077  0.96270313     0.30700
H1951       H  0.79701492  0.67421141  0.98695953     0.34100
H1952       H  0.79220595  0.70148119  0.99814362     0.30700
H1953       H  0.87184608  0.74824481  0.92469514     0.38600
H1954       H  0.85594405  0.73793648  0.89933414     0.34100
C1955       C  0.11570878  0.67632248  0.94094050    -0.19700
C1956       C  0.13719166  0.67395292  0.92441134     0.36600
C1957       C  0.16115093  0.68584701  0.92921243    -0.25600
C1958       C  0.16391311  0.70017263  0.95009488     0.03000
C1959       C  0.14320852  0.70121285  0.96754973     0.27800
C1960       C  0.11929052  0.68922396  0.96282526    -0.24800
N1961       N  0.13406984  0.66032167  0.90222685    -0.82100
H1962       H  0.17725746  0.68486157  0.91607277     0.13600
C1963       C  0.18757638  0.71550939  0.95289693     0.03000
N1964       N  0.14624376  0.71529835  0.98946587    -0.80700
H1965       H  0.10281988  0.69122944  0.97543015     0.18400
C1966       C  0.18445139  0.74006371  0.95013363    -0.25600
C1967       C  0.20392526  0.75575661  0.95879128     0.36500
C1968       C  0.22700140  0.74657170  0.97013220    -0.19600
C1969       C  0.23182776  0.72208164  0.96923310    -0.24800
C1970       C  0.21205731  0.70635154  0.96112919     0.27800
H1971       H  0.16581044  0.74697958  0.94316069     0.13600
N1972       N  0.19922377  0.78086898  0.95835400    -0.82100
H1973       H  0.24946877  0.71506537  0.97814769     0.18500
N1974       N  0.21598746  0.68120700  0.96300040    -0.80700
H1975       H  0.18150024  0.78471560  0.94906896     0.34100
H1976       H  0.19672834  0.78646650  0.97660834     0.38600
H1977       H  0.23510669  0.67741444  0.96941417     0.34000
H1978       H  0.20293810  0.67468425  0.97639038     0.30700
H1979       H  0.12915254  0.71446608  0.00028941     0.34100
H1980       H  0.16151642  0.70783192  0.00009542     0.30700
H1981       H  0.13083797  0.64274456  0.90758743     0.38600
H1982       H  0.15152181  0.66052690  0.89188689     0.34100
C1983       C  0.04147161  0.69403745  0.88479601    -0.19700
C1984       C  0.02725651  0.68511988  0.86435286     0.36600
C1985       C  0.02344370  0.69966518  0.84326721    -0.25600
C1986       C  0.03373222  0.72282433  0.84217082     0.03000
C1987       C  0.04660983  0.73209791  0.86316825     0.27800
C1988       C  0.04983613  0.71781166  0.88430803    -0.24800
N1989       N  0.01731587  0.66129938  0.86478958    -0.82100
H1990       H  0.01270277  0.69281126  0.82745573     0.13600
C1991       C  0.02996743  0.73747315  0.81933538     0.03000
N1992       N  0.05708324  0.75576405  0.86271115    -0.80700
H1993       H  0.06013425  0.72497155  0.90023647     0.18400
C1994       C  0.01798126  0.75980513  0.82119967    -0.25600
C1995       C  0.01061160  0.77271263  0.79995662     0.36500
C1996       C  0.01440290  0.76271894  0.77639901    -0.19600
C1997       C  0.02893739  0.74164810  0.77439443    -0.24800
C1998       C  0.03693287  0.72895400  0.79569806     0.27800
H1999       H  0.01269916  0.76649905  0.83926440     0.13600
N2000       N  0.99619287  0.79453469  0.80218127    -0.82100
H2001       H  0.03151862  0.73386321  0.75627927     0.18500
N2002       N  0.05088852  0.70690875  0.79343141    -0.80700
H2003       H  0.99407593  0.79909561  0.82080346     0.34100
H2004       H  0.00759981  0.80785116  0.79395922     0.38600
H2005       H  0.05422680  0.70304843  0.77478927     0.34000
H2006       H  0.06950389  0.70905070  0.80166379     0.30700
H2007       H  0.06588033  0.75992279  0.87970171     0.34100
H2008       H  0.07210254  0.75632213  0.84945733     0.30700
H2009       H  0.03357969  0.64985399  0.86533436     0.38600
H2010       H  0.00695040  0.65765307  0.84844547     0.34100
loop_ 
_geom_bond_atom_site_label_1 
_geom_bond_atom_site_label_2 
_geom_bond_distance 
_geom_bond_site_symmetry_2 
_ccdc_geom_bond_type 
C1            C2   1.393       .  A
C1            C6   1.405       .  A
C1         C1955   1.490       .  S
C2            C3   1.402       .  A
C2            H7   1.085       .  S
C3            C4   1.414       .  A
C3         C1983   1.491       .  S
C4            C5   1.413       .  A
C4            H8   1.083       .  S
C5            C6   1.420       .  A
C5           C75   1.494       .  S
C6            H9   1.084       .  S
C10          C11   1.408       .  A
C10          C15   1.396       .  A
C10        C1927   1.496       .  S
C11          C12   1.420       .  A
C11          H16   1.083       .  S
C12          C13   1.421       .  A
C12         C104   1.510       .  S
C13          C14   1.417       .  A
C13          H17   1.083       .  S
C14          C15   1.398       .  A
C14        C1899   1.492       .  S
C15          H18   1.084       .  S
C19          C20   1.422       .  A
C19          C24   1.399       .  A
C19        C1843   1.497       .  S
C20          C21   1.425       .  A
C20          H25   1.083       .  S
C21          C22   1.418       .  A
C21          C95   1.509       .  S
C22          C23   1.405       .  A
C22          H26   1.083       .  S
C23          C24   1.396       .  A
C23        C1871   1.493       .  S
C24          H27   1.085       .  S
C28          C29   1.408       .  A
C28          C33   1.397       .  A
C28        C1787   1.481       .  S
C29          C30   1.412       .  A
C29          H34   1.083       .  S
C30          C31   1.423       .  A
C30          C84   1.497       .  S
C31          C32   1.415       .  A
C31          H35   1.082       .  S
C32          C33   1.399       .  A
C32        C1815   1.509       .  S
C33          H36   1.084       .  S
C37          C38   1.397       .  A
C37          C42   1.419       .  A
C37        C1731   1.495       .  S
C38          C39   1.395       .  A
C38          H43   1.085       .  S
C39          C40   1.409       .  A
C39        C1759   1.499       .  S
C40          C41   1.423       .  A
C40          H44   1.082       .  S
C41          C42   1.424       .  A
C41         C101   1.512       .  S
C42          H45   1.083       .  S
C46          C47   1.397       .  A
C46          C51   1.412       .  A
C46        C1675   1.507       .  S
C47          C48   1.397       .  A
C47          H52   1.084       .  S
C48          C49   1.414       .  A
C48        C1703   1.493       .  S
C49          C50   1.420       .  A
C49          H53   1.083       .  S
C50          C51   1.423       .  A
C50          C98   1.504       .  S
C51          H54   1.082       .  S
C55          C56   1.408       .  A
C55          C60   1.397       .  A
C55        C1619   1.501       .  S
C56          C57   1.420       .  A
C56          H61   1.082       .  S
C57          C58   1.420       .  A
C57          C81   1.509       .  S
C58          C59   1.418       .  A
C58          H62   1.083       .  S
C59          C60   1.398       .  A
C59        C1647   1.492       .  S
C60          H63   1.085       .  S
C64          C65   1.415       .  A
C64          C69   1.405       .  A
C64        C1576   1.496       .  S
C65          C66   1.414       .  A
C65          H70   1.083       .  S
C66          C67   1.414       .  A
C66          C78   1.488       .  S
C67          C68   1.401       .  A
C67          H71   1.084       .  S
C68          C69   1.394       .  A
C68        C1591   1.488       .  S
C69          H72   1.084       .  S
O73         Zr85   2.413   1_556  S
O73          C75   1.283       .  A
O74        Zr111   2.492   1_455  S
O74          C75   1.300       .  A
O76         Zr88   2.431       .  S
O76          C78   1.288       .  A
O77        Zr112   2.468   1_455  S
O77          C78   1.295       .  A
O79         Zr88   2.447   1_556  S
O79          C81   1.291       .  A
O80        Zr111   2.481   1_455  S
O80          C81   1.297       .  A
O82         Zr85   2.429       .  S
O82          C84   1.286       .  A
O83        Zr112   2.483   1_455  S
O83          C84   1.298       .  A
Zr85         O86   2.435       .  S
Zr85         O87   2.435       .  S
Zr85         O91   2.375   1_554  S
Zr85         O92   2.363       .  S
Zr85        O115   2.367   1_455  S
Zr85        O117   2.369   1_454  S
O86         H129   0.990       .  S
O87         H128   0.990       .  S
O87         H132   0.990       .  S
Zr88         O89   2.436       .  S
Zr88         O90   2.435       .  S
Zr88         O92   2.375       .  S
Zr88         O91   2.366   1_554  S
Zr88        O116   2.364   1_454  S
Zr88        O118   2.375   1_455  S
O89         H130   0.990       .  S
O89         H133   0.990       .  S
O90         H123   0.990   1_455  S
O91        Zr111   2.397   1_455  S
O92        Zr112   2.400   1_455  S
O92         H119   0.966       .  S
O93        Zr105   2.461       .  S
O93          C95   1.293       .  A
O94        Zr112   2.473       .  S
O94          C95   1.296       .  A
O96        Zr108   2.445   1_556  S
O96          C98   1.290       .  A
O97        Zr111   2.482       .  S
O97          C98   1.298       .  A
O99        Zr108   2.456       .  S
O99         C101   1.292       .  A
O100       Zr112   2.479       .  S
O100        C101   1.297       .  A
O102       Zr105   2.459   1_556  S
O102        C104   1.293       .  A
O103       Zr111   2.474       .  S
O103        C104   1.297       .  A
Zr105       O106   2.436       .  S
Zr105       O107   2.435       .  S
Zr105       O113   2.376       .  S
Zr105       O114   2.376   1_554  S
Zr105       O117   2.378   1_554  S
Zr105       O115   2.375       .  S
O106        H126   0.990       .  S
O106        H131   0.990       .  S
O107        H127   0.990       .  S
Zr108       O109   2.434       .  S
Zr108       O110   2.435       .  S
Zr108       O114   2.378   1_554  S
Zr108       O113   2.371       .  S
Zr108       O118   2.370       .  S
Zr108       O116   2.371   1_554  S
O109        H125   0.990       .  S
O110        H124   0.990       .  S
O110        H134   0.990       .  S
Zr111       O114   2.407       .  S
Zr111       O116   2.399       .  S
Zr111       O117   2.406       .  S
Zr112       O113   2.405       .  S
Zr112       O115   2.397       .  S
Zr112       O118   2.401       .  S
O113        H121   0.967       .  S
O116        H120   0.966       .  S
O117        H122   0.967       .  S
C135        C136   1.406       .  A
C135        C140   1.396   1_545  A
C135       C1507   1.492       .  S
C136        C137   1.417       .  A
C136        H141   1.083       .  S
C137        C138   1.418   1_545  A
C137        C209   1.501       .  S
C138        C139   1.416       .  A
C138        H142   1.083       .  S
C139        C140   1.398       .  A
C139       C1535   1.491       .  S
C140        H143   1.085       .  S
C144        C145   1.396   1_545  A
C144        C149   1.408       .  A
C144       C1492   1.498       .  S
C145        C146   1.398       .  A
C145        H150   1.084       .  S
C146        C147   1.414       .  A
C146       C1451   1.489       .  S
C147        C148   1.418   1_565  A
C147        H151   1.083       .  S
C148        C149   1.420       .  A
C148        C238   1.504       .  S
C149        H152   1.083       .  S
C153        C154   1.419       .  A
C153        C158   1.397       .  A
C153       C1395   1.492       .  S
C154        C155   1.423       .  A
C154        H159   1.083       .  S
C155        C156   1.420       .  A
C155        C229   1.509       .  S
C156        C157   1.408       .  A
C156        H160   1.083       .  S
C157        C158   1.393       .  A
C157       C1423   1.496       .  S
C158        H161   1.084       .  S
C162        C163   1.412       .  A
C162        C167   1.399       .  A
C162       C1339   1.481       .  S
C163        C164   1.413       .  A
C163        H168   1.083       .  S
C164        C165   1.419       .  A
C164        C218   1.499       .  S
C165        C166   1.406       .  A
C165        H169   1.083       .  S
C166        C167   1.396       .  A
C166       C1367   1.494       .  S
C167        H170   1.085       .  S
C171        C172   1.415       .  A
C171        C176   1.398       .  A
C171       C1296   1.489       .  S
C172        C173   1.418       .  A
C172        H177   1.083       .  S
C173        C174   1.420       .  A
C173        C235   1.499       .  S
C174        C175   1.404       .  A
C174        H178   1.083       .  S
C175        C176   1.391       .  A
C175       C1324   1.493       .  S
C176        H179   1.085       .  S
C180        C181   1.404       .  A
C180        C185   1.395   1_545  A
C180       C1240   1.490       .  S
C181        C182   1.416       .  A
C181        H186   1.082       .  S
C182        C183   1.422   1_545  A
C182        C232   1.504       .  S
C183        C184   1.418       .  A
C183        H187   1.083       .  S
C184        C185   1.398       .  A
C184       C1255   1.491       .  S
C185        H188   1.085       .  S
C189        C190   1.393   1_545  A
C189        C194   1.403       .  A
C189       C1184   1.485       .  S
C190        C191   1.398       .  A
C190        H195   1.084       .  S
C191        C192   1.414       .  A
C191       C1199   1.486       .  S
C192        C193   1.413   1_565  A
C192        H196   1.083       .  S
C193        C194   1.415       .  A
C193        C215   1.494       .  S
C194        H197   1.083       .  S
C198        C199   1.401       .  A
C198        C203   1.414       .  A
C198       C1156   1.491       .  S
C199        C200   1.396       .  A
C199        H204   1.083       .  S
C200        C201   1.407       .  A
C200       C1115   1.493       .  S
C201        C202   1.413       .  A
C201        H205   1.084       .  S
C202        C203   1.414       .  A
C202        C212   1.493       .  S
C203        H206   1.083       .  S
O207       Zr219   2.451       .  S
O207        C209   1.291       .  A
O208       Zr245   2.462       .  S
O208        C209   1.294       .  A
O210       Zr222   2.448       .  S
O210        C212   1.290       .  A
O211       Zr246   2.465       .  S
O211        C212   1.294       .  A
O213       Zr222   2.434       .  S
O213        C215   1.288       .  A
O214       Zr245   2.464       .  S
O214        C215   1.294       .  A
O216       Zr219   2.435       .  S
O216        C218   1.288       .  A
O217       Zr246   2.473       .  S
O217        C218   1.296       .  A
Zr219       O220   2.434       .  S
Zr219       O221   2.436       .  S
Zr219       O225   2.363       .  S
Zr219       O226   2.373       .  S
Zr219       O249   2.378       .  S
Zr219       O251   2.370       .  S
O220        H263   0.990       .  S
O221        H262   0.990       .  S
O221        H266   0.990       .  S
Zr222       O223   2.438       .  S
Zr222       O224   2.434       .  S
Zr222       O226   2.366       .  S
Zr222       O225   2.369       .  S
Zr222       O250   2.379       .  S
Zr222       O252   2.375       .  S
O223        H264   0.990       .  S
O223        H267   0.990       .  S
O224        H257   0.990       .  S
O225       Zr245   2.392       .  S
O226       Zr246   2.402       .  S
O226        H253   0.966       .  S
O227       Zr239   2.461       .  S
O227        C229   1.293       .  A
O228       Zr246   2.471       .  S
O228        C229   1.295   1_554  A
O230       Zr242   2.455       .  S
O230        C232   1.292       .  A
O231       Zr245   2.463       .  S
O231        C232   1.293   1_554  A
O233       Zr242   2.438       .  S
O233        C235   1.288       .  A
O234       Zr246   2.476   1_556  S
O234        C235   1.296       .  A
O236       Zr239   2.446       .  S
O236        C238   1.290       .  A
O237       Zr245   2.467       .  S
O237        C238   1.295   1_554  A
Zr239       O240   2.437       .  S
Zr239       O241   2.434   1_556  S
Zr239       O247   2.370       .  S
Zr239       O248   2.374       .  S
Zr239       O251   2.376   1_556  S
Zr239       O249   2.370   1_556  S
O240        H260   0.990       .  S
O240        H265   0.990       .  S
O241        H261   0.990   1_554  S
Zr242       O243   2.434       .  S
Zr242       O244   2.435       .  S
Zr242       O248   2.365       .  S
Zr242       O247   2.377       .  S
Zr242       O252   2.377   1_556  S
Zr242       O250   2.370   1_556  S
O243        H259   0.990       .  S
O244        H258   0.990   1_556  S
O244        H268   0.990       .  S
Zr245       O248   2.392   1_554  S
Zr245       O250   2.402       .  S
Zr245       O251   2.401       .  S
Zr246       O247   2.401   1_554  S
Zr246       O249   2.401       .  S
Zr246       O252   2.402       .  S
O247        H255   0.966       .  S
O250        H254   0.967       .  S
O251        H256   0.966       .  S
C269        C270   1.404       .  A
C269        C274   1.394   1_545  A
C269       C1059   1.486       .  S
C270        C271   1.413       .  A
C270        H275   1.083       .  S
C271        C272   1.414       .  A
C271        C349   1.489       .  S
C272        C273   1.411   1_545  A
C272        H276   1.083   1_545  S
C273        C274   1.398       .  A
C273       C1087   1.485       .  S
C274        H277   1.085       .  S
C278        C279   1.403       .  A
C278        C283   1.393   1_545  A
C278       C1031   1.488       .  S
C279        C280   1.418       .  A
C279        H284   1.083       .  S
C280        C281   1.424   1_545  A
C280        C366   1.506       .  S
C281        C282   1.420       .  A
C281        H285   1.083       .  S
C282        C283   1.397       .  A
C282       C1003   1.490       .  S
C283        H286   1.085       .  S
C287        C288   1.416       .  A
C287        C292   1.399       .  A
C287        C960   1.493       .  S
C288        C289   1.421       .  A
C288        H293   1.082       .  S
C289        C290   1.420       .  A
C289        C369   1.507       .  S
C290        C291   1.407       .  A
C290        H294   1.083       .  S
C291        C292   1.394       .  A
C291        C975   1.493       .  S
C292        H295   1.084       .  S
C296        C297   1.425       .  A
C296        C301   1.406       .  A
C296        C891   1.511       .  S
C297        C298   1.424       .  A
C297        H302   1.082       .  S
C298        C299   1.416       .  A
C298        C346   1.503       .  S
C299        C300   1.397       .  A
C299        H303   1.083       .  S
C300        C301   1.391       .  A
C300        C932   1.488       .  S
C301        H304   1.084       .  S
C305        C306   1.398       .  A
C305        C310   1.419       .  A
C305        C835   1.490       .  S
C306        C307   1.398       .  A
C306        H311   1.084       .  S
C307        C308   1.407       .  A
C307        C876   1.498       .  S
C308        C309   1.417       .  A
C308        H312   1.082       .  S
C309        C310   1.421       .  A
C309        C363   1.510       .  S
C310        H313   1.083       .  S
C314        C315   1.406       .  A
C314        C319   1.394   1_545  A
C314        C779   1.486       .  S
C315        C316   1.414       .  A
C315        H320   1.084       .  S
C316        C317   1.423       .  A
C316        C372   1.501       .  S
C317        C318   1.416   1_545  A
C317        H321   1.083   1_545  S
C318        C319   1.395       .  A
C318        C807   1.491       .  S
C319        H322   1.085       .  S
C323        C324   1.395   1_545  A
C323        C328   1.405       .  A
C323        C736   1.493       .  S
C324        C325   1.403       .  A
C324        H329   1.084       .  S
C325        C326   1.418   1_565  A
C325        C764   1.497       .  S
C326        C327   1.418       .  A
C326        H330   1.083       .  S
C327        C328   1.415       .  A
C327        C343   1.495       .  S
C328        H331   1.084       .  S
C332        C333   1.399       .  A
C332        C337   1.413       .  A
C332        C680   1.490       .  S
C333        C334   1.394       .  A
C333        H338   1.083       .  S
C334        C335   1.405       .  A
C334        C708   1.495       .  S
C335        C336   1.418       .  A
C335        H339   1.082       .  S
C336        C337   1.413       .  A
C336        C352   1.495       .  S
C337        H340   1.083       .  S
O341       Zr353   2.439       .  S
O341        C343   1.288       .  A
O342       Zr379   2.476   1_455  S
O342        C343   1.295       .  A
O344       Zr356   2.445       .  S
O344        C346   1.290       .  A
O345       Zr380   2.471   1_455  S
O345        C346   1.294       .  A
O347       Zr356   2.444       .  S
O347        C349   1.290       .  A
O348       Zr379   2.451   1_455  S
O348        C349   1.292       .  A
O350       Zr353   2.428       .  S
O350        C352   1.287       .  A
O351       Zr380   2.469   1_455  S
O351        C352   1.295       .  A
Zr353       O354   2.435       .  S
Zr353       O355   2.436       .  S
Zr353       O359   2.365       .  S
Zr353       O360   2.369       .  S
Zr353       O383   2.376   1_455  S
Zr353       O385   2.372   1_455  S
O354        H397   0.990       .  S
O355        H396   0.990       .  S
O355        H400   0.990       .  S
Zr356       O357   2.438       .  S
Zr356       O358   2.436       .  S
Zr356       O360   2.370       .  S
Zr356       O359   2.374       .  S
Zr356       O384   2.370   1_455  S
Zr356       O386   2.370   1_455  S
O357        H398   0.990       .  S
O357        H401   0.990       .  S
O358        H391   0.990       .  S
O359       Zr379   2.393   1_455  S
O360       Zr380   2.401   1_455  S
O360        H387   0.965       .  S
O361       Zr373   2.455       .  S
O361        C363   1.293       .  A
O362       Zr380   2.474       .  S
O362        C363   1.295       .  A
O364       Zr376   2.448       .  S
O364        C366   1.291       .  A
O365       Zr379   2.473       .  S
O365        C366   1.295       .  A
O367       Zr376   2.453       .  S
O367        C369   1.292       .  A
O368       Zr380   2.468       .  S
O368        C369   1.295       .  A
O370       Zr373   2.474       .  S
O370        C372   1.296       .  A
O371       Zr379   2.446       .  S
O371        C372   1.291       .  A
Zr373       O374   2.435       .  S
Zr373       O375   2.435       .  S
Zr373       O381   2.377       .  S
Zr373       O382   2.371       .  S
Zr373       O385   2.371       .  S
Zr373       O383   2.377       .  S
O374        H394   0.990       .  S
O374        H399   0.990       .  S
O375        H395   0.990       .  S
Zr376       O377   2.434       .  S
Zr376       O378   2.435       .  S
Zr376       O382   2.373       .  S
Zr376       O381   2.374       .  S
Zr376       O386   2.371       .  S
Zr376       O384   2.371       .  S
O377        H393   0.990       .  S
O378        H392   0.990       .  S
O378        H402   0.990       .  S
Zr379       O382   2.397       .  S
Zr379       O384   2.401       .  S
Zr379       O385   2.398       .  S
Zr380       O381   2.403       .  S
Zr380       O383   2.400       .  S
Zr380       O386   2.399       .  S
O381        H389   0.966       .  S
O384        H388   0.967       .  S
O385        H390   0.966       .  S
C403        C404   1.391       .  A
C403        C408   1.420       .  A
C403       C1744   1.490       .  S
C404        C405   1.389       .  A
C404        H423   1.088       .  S
C405        C406   1.415       .  A
C405       C1563   1.483   1_655  S
C406        C407   1.426       .  A
C406        C413   1.405   1_655  A
C407        C408   1.428       .  A
C407        C412   1.423       .  A
C408        C409   1.406       .  A
C409        C410   1.403       .  A
C409        H419   1.083       .  S
C410        C411   1.406       .  A
C410        H420   1.083       .  S
C411        C412   1.428       .  A
C411        C418   1.420       .  A
C412        C415   1.428       .  A
C413        C414   1.400       .  A
C413        H421   1.083       .  S
C414        C415   1.405   1_455  A
C414        H422   1.083       .  S
C415        C416   1.415       .  A
C416        C417   1.386       .  A
C416        C667   1.483   1_655  S
C417        C418   1.390       .  A
C417        H424   1.088       .  S
C418        C848   1.489       .  S
C425        C426   1.391       .  A
C425        C430   1.414       .  A
C425       C1128   1.485       .  S
C426        C427   1.394       .  A
C426        H445   1.087       .  S
C427        C428   1.414       .  A
C427       C1171   1.481       .  S
C428        C429   1.422       .  A
C428        C435   1.406       .  A
C429        C430   1.426       .  A
C429        C434   1.419       .  A
C430        C431   1.404       .  A
C431        C432   1.396       .  A
C431        H441   1.083       .  S
C432        C433   1.405       .  A
C432        H442   1.083       .  S
C433        C434   1.421       .  A
C433        C440   1.411       .  A
C434        C437   1.426       .  A
C435        C436   1.399       .  A
C435        H443   1.083       .  S
C436        C437   1.404       .  A
C436        H444   1.083       .  S
C437        C438   1.418       .  A
C438        C439   1.392       .  A
C438        C723   1.486       .  S
C439        C440   1.390       .  A
C439        H446   1.087       .  S
C440        C695   1.477       .  S
C447        C448   1.391   1_556  A
C447        C452   1.414       .  A
C447       C1632   1.482       .  S
C448        C449   1.391       .  A
C448        H467   1.087       .  S
C449        C450   1.411       .  A
C449       C1604   1.479       .  S
C450        C451   1.423       .  A
C450        C457   1.406       .  A
C451        C452   1.425   1_554  A
C451        C456   1.417       .  A
C452        C453   1.405       .  A
C453        C454   1.399       .  A
C453        H463   1.083       .  S
C454        C455   1.405       .  A
C454        H464   1.083       .  S
C455        C456   1.419   1_556  A
C455        C462   1.414       .  A
C456        C459   1.421       .  A
C457        C458   1.398       .  A
C457        H465   1.083       .  S
C458        C459   1.403       .  A
C458        H466   1.083       .  S
C459        C460   1.411       .  A
C460        C461   1.394       .  A
C460       C1143   1.485       .  S
C461        C462   1.397   1_554  A
C461        H468   1.088       .  S
C462       C1283   1.480       .  S
C469        C470   1.392       .  A
C469        C474   1.412       .  A
C469       C1520   1.479       .  S
C470        C471   1.391       .  A
C470        H489   1.087       .  S
C471        C472   1.413       .  A
C471       C1380   1.482       .  S
C472        C473   1.425       .  A
C472        C479   1.404       .  A
C473        C474   1.423       .  A
C473        C478   1.418       .  A
C474        C475   1.405       .  A
C475        C476   1.397       .  A
C475        H485   1.083       .  S
C476        C477   1.405       .  A
C476        H486   1.083       .  S
C477        C478   1.424       .  A
C477        C484   1.413       .  A
C478        C481   1.423       .  A
C479        C480   1.397       .  A
C479        H487   1.083       .  S
C480        C481   1.406       .  A
C480        H488   1.083       .  S
C481        C482   1.412       .  A
C482        C483   1.391       .  A
C482        C863   1.479       .  S
C483        C484   1.393       .  A
C483        H490   1.087       .  S
C484        C792   1.481       .  S
C491        C492   1.384       .  A
C491        C496   1.410       .  A
C491       C1800   1.479   1_655  S
C492        C493   1.390       .  A
C492        H511   1.089       .  S
C493        C494   1.429       .  A
C493       C1856   1.495       .  S
C494        C495   1.431       .  A
C494        C501   1.408       .  A
C495        C496   1.427       .  A
C495        C500   1.424       .  A
C496        C497   1.403   1_655  A
C497        C498   1.396       .  A
C497        H507   1.083       .  S
C498        C499   1.403   1_455  A
C498        H508   1.083       .  S
C499        C500   1.429       .  A
C499        C506   1.412       .  A
C500        C503   1.429       .  A
C501        C502   1.410       .  A
C501        H509   1.083       .  S
C502        C503   1.409       .  A
C502        H510   1.083       .  S
C503        C504   1.426       .  A
C504        C505   1.392       .  A
C504        C820   1.490       .  S
C505        C506   1.384       .  A
C505        H512   1.089       .  S
C506        C751   1.484   1_655  S
C513        C514   1.389       .  A
C513        C518   1.411       .  A
C513       C1311   1.479       .  S
C514        C515   1.393       .  A
C514        H533   1.087       .  S
C515        C516   1.412       .  A
C515       C1227   1.479       .  S
C516        C517   1.423       .  A
C516        C523   1.405       .  A
C517        C518   1.424       .  A
C517        C522   1.417       .  A
C518        C519   1.404       .  A
C519        C520   1.395       .  A
C519        H529   1.083       .  S
C520        C521   1.405       .  A
C520        H530   1.083       .  S
C521        C522   1.422       .  A
C521        C528   1.409       .  A
C522        C525   1.424       .  A
C523        C524   1.398       .  A
C523        H531   1.083       .  S
C524        C525   1.405       .  A
C524        H532   1.083       .  S
C525        C526   1.414       .  A
C526        C527   1.393       .  A
C526       C1072   1.481       .  S
C527        C528   1.390       .  A
C527        H534   1.087       .  S
C528        C919   1.476       .  S
C535        C536   1.390       .  A
C535        C540   1.415       .  A
C535       C1716   1.484       .  S
C536        C537   1.390       .  A
C536        H555   1.088       .  S
C537        C538   1.419       .  A
C537       C1660   1.489   1_655  S
C538        C539   1.428       .  A
C538        C545   1.405   1_655  A
C539        C540   1.424       .  A
C539        C544   1.421       .  A
C540        C541   1.406       .  A
C541        C542   1.403       .  A
C541        H551   1.083       .  S
C542        C543   1.406       .  A
C542        H552   1.083       .  S
C543        C544   1.426       .  A
C543        C550   1.421       .  A
C544        C547   1.423       .  A
C545        C546   1.402       .  A
C545        H553   1.083       .  S
C546        C547   1.406   1_455  A
C546        H554   1.083       .  S
C547        C548   1.416       .  A
C548        C549   1.391       .  A
C548        C904   1.485   1_655  S
C549        C550   1.393       .  A
C549        H556   1.087       .  S
C550        C947   1.490       .  S
C557        C558   1.388       .  A
C557        C562   1.418       .  A
C557       C1828   1.488       .  S
C558        C559   1.392   1_554  A
C558        H577   1.088       .  S
C559        C560   1.414       .  A
C559       C1968   1.480       .  S
C560        C561   1.423   1_556  A
C560        C567   1.406       .  A
C561        C562   1.429       .  A
C561        C566   1.422       .  A
C562        C563   1.404       .  A
C563        C564   1.399       .  A
C563        H573   1.083       .  S
C564        C565   1.406       .  A
C564        H574   1.083       .  S
C565        C566   1.424       .  A
C565        C572   1.413       .  A
C566        C569   1.429   1_554  A
C567        C568   1.400       .  A
C567        H575   1.083       .  S
C568        C569   1.404       .  A
C568        H576   1.083       .  S
C569        C570   1.419       .  A
C570        C571   1.393   1_556  A
C570       C1268   1.491       .  S
C571        C572   1.391       .  A
C571        H578   1.087       .  S
C572       C1212   1.481       .  S
C579        C580   1.391       .  A
C579        C584   1.416       .  A
C579       C1688   1.481   1_554  S
C580        C581   1.389       .  A
C580        H599   1.088       .  S
C581        C582   1.415       .  A
C581       C1772   1.483       .  S
C582        C583   1.426       .  A
C582        C589   1.404       .  A
C583        C584   1.425       .  A
C583        C588   1.421       .  A
C584        C585   1.406   1_554  A
C585        C586   1.401       .  A
C585        H595   1.083       .  S
C586        C587   1.405   1_556  A
C586        H596   1.083       .  S
C587        C588   1.428       .  A
C587        C594   1.417       .  A
C588        C591   1.426       .  A
C589        C590   1.398       .  A
C589        H597   1.083       .  S
C590        C591   1.405       .  A
C590        H598   1.083       .  S
C591        C592   1.414       .  A
C592        C593   1.388       .  A
C592       C1352   1.483       .  S
C593        C594   1.390       .  A
C593        H600   1.088       .  S
C594       C1408   1.486   1_554  S
C601        C602   1.393       .  A
C601        C606   1.422       .  A
C601       C1912   1.489       .  S
C602        C603   1.387       .  A
C602        H621   1.088       .  S
C603        C604   1.408       .  A
C603       C1996   1.478   1_655  S
C604        C605   1.424       .  A
C604        C611   1.403   1_655  A
C605        C606   1.426       .  A
C605        C610   1.420       .  A
C606        C607   1.407       .  A
C607        C608   1.405       .  A
C607        H617   1.083       .  S
C608        C609   1.407       .  A
C608        H618   1.083       .  S
C609        C610   1.427       .  A
C609        C616   1.421       .  A
C610        C613   1.426       .  A
C611        C612   1.394       .  A
C611        H619   1.083       .  S
C612        C613   1.403   1_455  A
C612        H620   1.083       .  S
C613        C614   1.409       .  A
C614        C615   1.386       .  A
C614       C1100   1.481   1_655  S
C615        C616   1.394       .  A
C615        H622   1.088       .  S
C616       C1016   1.489       .  S
C623        C624   1.390       .  A
C623        C628   1.412       .  A
C623       C1436   1.480       .  S
C624        C625   1.392       .  A
C624        H643   1.087       .  S
C625        C626   1.418       .  A
C625       C1479   1.485       .  S
C626        C627   1.425       .  A
C626        C633   1.406       .  A
C627        C628   1.424       .  A
C627        C632   1.420       .  A
C628        C629   1.405       .  A
C629        C630   1.395       .  A
C629        H639   1.083       .  S
C630        C631   1.404       .  A
C630        H640   1.083       .  S
C631        C632   1.425       .  A
C631        C638   1.411       .  A
C632        C635   1.425       .  A
C633        C634   1.402       .  A
C633        H641   1.083       .  S
C634        C635   1.407       .  A
C634        H642   1.083       .  S
C635        C636   1.419       .  A
C636        C637   1.393       .  A
C636       C1044   1.486       .  S
C637        C638   1.390       .  A
C637        H644   1.087       .  S
C638        C988   1.482       .  S
C645        C646   1.391       .  A
C645        C650   1.417       .  A
C645       C1884   1.486       .  S
C646        C647   1.391       .  A
C646        H665   1.087       .  S
C647        C648   1.413       .  A
C647       C1940   1.480   1_554  S
C648        C649   1.423       .  A
C648        C655   1.406   1_554  A
C649        C650   1.427       .  A
C649        C654   1.421       .  A
C650        C651   1.405       .  A
C651        C652   1.399       .  A
C651        H661   1.083       .  S
C652        C653   1.406       .  A
C652        H662   1.083       .  S
C653        C654   1.425       .  A
C653        C660   1.415       .  A
C654        C657   1.428       .  A
C655        C656   1.399       .  A
C655        H663   1.083       .  S
C656        C657   1.404   1_556  A
C656        H664   1.083       .  S
C657        C658   1.416       .  A
C658        C659   1.389       .  A
C658       C1464   1.486   1_554  S
C659        C660   1.391       .  A
C659        H666   1.088       .  S
C660       C1548   1.484       .  S
C667        C668   1.411       .  A
C667        C672   1.404       .  A
C668        C669   1.406       .  A
C668        N673   1.437       .  S
C669        C670   1.404       .  A
C669        H674   1.083       .  S
C670        C671   1.414       .  A
C670        C675   1.494       .  S
C671        C672   1.409       .  A
C671        N676   1.438       .  S
C672        H677   1.084       .  S
N673        H693   1.045       .  S
N673        H694   1.046       .  S
C675        C678   1.408       .  A
C675        C682   1.411       .  A
N676        H691   1.046       .  S
N676        H692   1.045       .  S
C678        C679   1.406       .  A
C678        H683   1.084   1_455  S
C679        C680   1.408       .  A
C679        N684   1.431       .  S
C680        C681   1.408       .  A
C681        C682   1.405       .  A
C681        H685   1.084       .  S
C682        N686   1.438       .  S
N684        H687   1.044   1_455  S
N684        H688   1.046   1_455  S
N686        H689   1.046       .  S
N686        H690   1.046       .  S
C695        C696   1.416       .  A
C695        C700   1.404       .  A
C696        C697   1.397       .  A
C696        N701   1.439       .  S
C697        C698   1.403       .  A
C697        H702   1.084       .  S
C698        C699   1.411       .  A
C698        C703   1.486       .  S
C699        C700   1.407       .  A
C699        N704   1.437       .  S
C700        H705   1.084       .  S
N701        H721   1.043       .  S
N701        H722   1.046       .  S
C703        C706   1.406       .  A
C703        C710   1.407       .  A
N704        H719   1.046       .  S
N704        H720   1.045       .  S
C706        C707   1.409       .  A
C706        H711   1.083       .  S
C707        C708   1.413       .  A
C707        N712   1.437       .  S
C708        C709   1.410       .  A
C709        C710   1.401       .  A
C709        H713   1.083       .  S
C710        N714   1.438       .  S
N712        H715   1.046       .  S
N712        H716   1.046       .  S
N714        H717   1.046       .  S
N714        H718   1.046       .  S
C723        C724   1.413       .  A
C723        C728   1.407       .  A
C724        C725   1.399       .  A
C724        N729   1.433       .  S
C725        C726   1.403       .  A
C725        H730   1.084       .  S
C726        C727   1.416       .  A
C726        C731   1.487       .  S
C727        C728   1.407       .  A
C727        N732   1.438       .  S
C728        H733   1.084       .  S
N729        H749   1.045       .  S
N729        H750   1.045       .  S
C731        C734   1.400       .  A
C731        C738   1.412       .  A
N732        H747   1.046       .  S
N732        H748   1.043       .  S
C734        C735   1.406       .  A
C734        H739   1.084   1_545  S
C735        C736   1.415       .  A
C735        N740   1.432   1_545  S
C736        C737   1.405       .  A
C737        C738   1.408       .  A
C737        H741   1.084       .  S
C738        N742   1.438       .  S
N740        H743   1.046       .  S
N740        H744   1.045       .  S
N742        H745   1.046       .  S
N742        H746   1.046       .  S
C751        C752   1.409       .  A
C751        C756   1.405       .  A
C752        C753   1.408       .  A
C752        N757   1.437   1_455  S
C753        C754   1.406       .  A
C753        H758   1.083       .  S
C754        C755   1.412       .  A
C754        C759   1.495       .  S
C755        C756   1.408       .  A
C755        N760   1.438       .  S
C756        H761   1.084       .  S
N757        H777   1.046   1_655  S
N757        H778   1.046       .  S
C759        C762   1.410       .  A
C759        C766   1.408       .  A
N760        H775   1.046       .  S
N760        H776   1.046       .  S
C762        C763   1.412       .  A
C762        H767   1.084       .  S
C763        C764   1.411       .  A
C763        N768   1.437       .  S
C764        C765   1.411       .  A
C765        C766   1.405       .  A
C765        H769   1.084       .  S
C766        N770   1.438       .  S
N768        H771   1.046       .  S
N768        H772   1.046       .  S
N770        H773   1.046       .  S
N770        H774   1.046       .  S
C779        C780   1.417       .  A
C779        C784   1.402       .  A
C780        C781   1.407       .  A
C780        N785   1.438   1_545  S
C781        C782   1.400       .  A
C781        H786   1.084   1_545  S
C782        C783   1.413       .  A
C782        C787   1.482       .  S
C783        C784   1.405       .  A
C783        N788   1.439       .  S
C784        H789   1.084       .  S
N785        H805   1.045       .  S
N785        H806   1.046       .  S
C787        C790   1.400       .  A
C787        C794   1.417       .  A
N788        H803   1.046       .  S
N788        H804   1.044       .  S
C790        C791   1.400       .  A
C790        H795   1.084       .  S
C791        C792   1.416       .  A
C791        N796   1.437       .  S
C792        C793   1.402       .  A
C793        C794   1.402       .  A
C793        H797   1.084       .  S
C794        N798   1.438       .  S
N796        H799   1.046       .  S
N796        H800   1.045       .  S
N798        H801   1.046   1_545  S
N798        H802   1.044       .  S
C807        C808   1.411       .  A
C807        C812   1.408       .  A
C808        C809   1.413       .  A
C808        N813   1.437       .  S
C809        C810   1.409       .  A
C809        H814   1.084       .  S
C810        C811   1.410       .  A
C810        C815   1.500       .  S
C811        C812   1.411       .  A
C811        N816   1.437       .  S
C812        H817   1.084       .  S
N813        H833   1.046       .  S
N813        H834   1.046       .  S
C815        C818   1.404       .  A
C815        C822   1.421       .  A
N816        H831   1.046       .  S
N816        H832   1.046       .  S
C818        C819   1.410       .  A
C818        H823   1.084       .  S
C819        C820   1.413       .  A
C819        N824   1.432       .  S
C820        C821   1.406       .  A
C821        C822   1.409       .  A
C821        H825   1.084       .  S
C822        N826   1.438       .  S
N824        H827   1.046       .  S
N824        H828   1.045       .  S
N826        H829   1.046       .  S
N826        H830   1.043       .  S
C835        C836   1.411       .  A
C835        C840   1.408       .  A
C836        C837   1.407       .  A
C836        N841   1.438       .  S
C837        C838   1.406       .  A
C837        H842   1.084       .  S
C838        C839   1.414       .  A
C838        C843   1.500       .  S
C839        C840   1.416       .  A
C839        N844   1.437       .  S
C840        H845   1.084       .  S
N841        H861   1.045       .  S
N841        H862   1.046       .  S
C843        C846   1.408       .  A
C843        C850   1.409       .  A
N844        H859   1.046       .  S
N844        H860   1.045       .  S
C846        C847   1.411       .  A
C846        H851   1.084       .  S
C847        C848   1.412       .  A
C847        N852   1.438       .  S
C848        C849   1.410       .  A
C849        C850   1.408       .  A
C849        H853   1.084       .  S
C850        N854   1.432       .  S
N852        H855   1.046       .  S
N852        H856   1.045       .  S
N854        H857   1.046       .  S
N854        H858   1.045       .  S
C863        C864   1.405       .  A
C863        C868   1.404       .  A
C864        C865   1.405       .  A
C864        N869   1.432       .  S
C865        C866   1.404       .  A
C865        H870   1.084       .  S
C866        C867   1.412       .  A
C866        C871   1.479       .  S
C867        C868   1.397       .  A
C867        N872   1.433       .  S
C868        H873   1.084       .  S
N869        H889   1.045       .  S
N869        H890   1.046       .  S
C871        C874   1.401       .  A
C871        C878   1.405       .  A
N872        H887   1.046       .  S
N872        H888   1.044       .  S
C874        C875   1.407       .  A
C874        H879   1.084       .  S
C875        C876   1.416       .  A
C875        N880   1.437       .  S
C876        C877   1.412       .  A
C877        C878   1.406       .  A
C877        H881   1.083       .  S
C878        N882   1.439       .  S
N880        H883   1.046       .  S
N880        H884   1.045       .  S
N882        H885   1.046       .  S
N882        H886   1.044       .  S
C891        C892   1.415       .  A
C891        C896   1.412       .  A
C892        C893   1.420       .  A
C892        N897   1.436       .  S
C893        C894   1.414       .  A
C893        H898   1.083       .  S
C894        C895   1.411       .  A
C894        C899   1.507       .  S
C895        C896   1.399       .  A
C895        N900   1.439       .  S
C896        H901   1.081       .  S
N897        H917   1.046       .  S
N897        H918   1.045       .  S
C899        C902   1.408       .  A
C899        C906   1.417       .  A
N900        H915   1.046       .  S
N900        H916   1.046       .  S
C902        C903   1.396       .  A
C902        H907   1.083       .  S
C903        C904   1.412       .  A
C903        N908   1.434       .  S
C904        C905   1.408       .  A
C905        C906   1.415       .  A
C905        H909   1.084       .  S
C906        N910   1.437       .  S
N908        H911   1.045   1_455  S
N908        H912   1.045       .  S
N910        H913   1.046       .  S
N910        H914   1.045       .  S
C919        C920   1.412       .  A
C919        C924   1.402       .  A
C920        C921   1.397       .  A
C920        N925   1.438       .  S
C921        C922   1.405       .  A
C921        H926   1.084       .  S
C922        C923   1.419       .  A
C922        C927   1.488       .  S
C923        C924   1.403       .  A
C923        N928   1.438       .  S
C924        H929   1.084       .  S
N925        H945   1.044       .  S
N925        H946   1.046       .  S
C927        C930   1.400       .  A
C927        C934   1.416       .  A
N928        H943   1.046       .  S
N928        H944   1.043       .  S
C930        C931   1.401       .  A
C930        H935   1.084       .  S
C931        C932   1.416       .  A
C931        N936   1.438       .  S
C932        C933   1.403       .  A
C933        C934   1.410       .  A
C933        H937   1.083       .  S
C934        N938   1.438       .  S
N936        H939   1.046       .  S
N936        H940   1.046       .  S
N938        H941   1.046       .  S
N938        H942   1.046       .  S
C947        C948   1.420       .  A
C947        C952   1.405       .  A
C948        C949   1.406       .  A
C948        N953   1.437       .  S
C949        C950   1.402       .  A
C949        H954   1.084       .  S
C950        C951   1.412       .  A
C950        C955   1.493       .  S
C951        C952   1.410       .  A
C951        N956   1.437       .  S
C952        H957   1.084       .  S
N953        H973   1.045       .  S
N953        H974   1.046       .  S
C955        C958   1.407       .  A
C955        C962   1.408       .  A
N956        H971   1.046       .  S
N956        H972   1.046       .  S
C958        C959   1.411       .  A
C958        H963   1.084       .  S
C959        C960   1.411       .  A
C959        N964   1.437       .  S
C960        C961   1.410       .  A
C961        C962   1.409       .  A
C961        H965   1.084       .  S
C962        N966   1.437       .  S
N964        H967   1.046       .  S
N964        H968   1.045       .  S
N966        H969   1.046       .  S
N966        H970   1.046       .  S
C975        C976   1.415       .  A
C975        C980   1.403       .  A
C976        C977   1.403       .  A
C976        N981   1.433       .  S
C977        C978   1.403       .  A
C977        H982   1.084       .  S
C978        C979   1.414       .  A
C978        C983   1.494       .  S
C979        C980   1.407       .  A
C979        N984   1.432       .  S
C980        H985   1.084       .  S
N981       H1001   1.046       .  S
N981       H1002   1.046       .  S
C983        C986   1.407       .  A
C983        C990   1.411       .  A
N984        H999   1.046       .  S
N984       H1000   1.046       .  S
C986        C987   1.405       .  A
C986        H991   1.084       .  S
C987        C988   1.415       .  A
C987        N992   1.437       .  S
C988        C989   1.402       .  A
C989        C990   1.401       .  A
C989        H993   1.084       .  S
C990        N994   1.432       .  S
N992        H995   1.046       .  S
N992        H996   1.044       .  S
N994        H997   1.046       .  S
N994        H998   1.046       .  S
C1003      C1004   1.410       .  A
C1003      C1008   1.404       .  A
C1004      C1005   1.415       .  A
C1004      N1009   1.436       .  S
C1005      C1006   1.411       .  A
C1005      H1010   1.083       .  S
C1006      C1007   1.417       .  A
C1006      C1011   1.507       .  S
C1007      C1008   1.406       .  A
C1007      N1012   1.433       .  S
C1008      H1013   1.084       .  S
N1009      H1029   1.046       .  S
N1009      H1030   1.046       .  S
C1011      C1014   1.405       .  A
C1011      C1018   1.418       .  A
N1012      H1027   1.043       .  S
N1012      H1028   1.046       .  S
C1014      C1015   1.406       .  A
C1014      H1019   1.083       .  S
C1015      C1016   1.413       .  A
C1015      N1020   1.433       .  S
C1016      C1017   1.403       .  A
C1017      C1018   1.414       .  A
C1017      H1021   1.083       .  S
C1018      N1022   1.437       .  S
N1020      H1023   1.045       .  S
N1020      H1024   1.046       .  S
N1022      H1025   1.046       .  S
N1022      H1026   1.045       .  S
C1031      C1032   1.412       .  A
C1031      C1036   1.404       .  A
C1032      C1033   1.405       .  A
C1032      N1037   1.433   1_545  S
C1033      C1034   1.402       .  A
C1033      H1038   1.084       .  S
C1034      C1035   1.413       .  A
C1034      C1039   1.488       .  S
C1035      C1036   1.407       .  A
C1035      N1040   1.438       .  S
C1036      H1041   1.084       .  S
N1037      H1057   1.046       .  S
N1037      H1058   1.046       .  S
C1039      C1042   1.405       .  A
C1039      C1046   1.417       .  A
N1040      H1055   1.046       .  S
N1040      H1056   1.046       .  S
C1042      C1043   1.403       .  A
C1042      H1047   1.084       .  S
C1043      C1044   1.416       .  A
C1043      N1048   1.438       .  S
C1044      C1045   1.406       .  A
C1045      C1046   1.404       .  A
C1045      H1049   1.084       .  S
C1046      N1050   1.439       .  S
N1048      H1051   1.045       .  S
N1048      H1052   1.043       .  S
N1050      H1053   1.046       .  S
N1050      H1054   1.042       .  S
C1059      C1060   1.412       .  A
C1059      C1064   1.410       .  A
C1060      C1061   1.403       .  A
C1060      N1065   1.438       .  S
C1061      C1062   1.402       .  A
C1061      H1066   1.084       .  S
C1062      C1063   1.404       .  A
C1062      C1067   1.477       .  S
C1063      C1064   1.405       .  A
C1063      N1068   1.437   1_545  S
C1064      H1069   1.084   1_545  S
N1065      H1085   1.046       .  S
N1065      H1086   1.046       .  S
C1067      C1070   1.402       .  A
C1067      C1074   1.411       .  A
N1068      H1083   1.045       .  S
N1068      H1084   1.046       .  S
C1070      C1071   1.400       .  A
C1070      H1075   1.084       .  S
C1071      C1072   1.415       .  A
C1071      N1076   1.438       .  S
C1072      C1073   1.407       .  A
C1073      C1074   1.401       .  A
C1073      H1077   1.084       .  S
C1074      N1078   1.438       .  S
N1076      H1079   1.045       .  S
N1076      H1080   1.043       .  S
N1078      H1081   1.046       .  S
N1078      H1082   1.044       .  S
C1087      C1088   1.413       .  A
C1087      C1092   1.401       .  A
C1088      C1089   1.402       .  A
C1088      N1093   1.433       .  S
C1089      C1090   1.400       .  A
C1089      H1094   1.084       .  S
C1090      C1091   1.415       .  A
C1090      C1095   1.489       .  S
C1091      C1092   1.408       .  A
C1091      N1096   1.436   1_455  S
C1092      H1097   1.084       .  S
N1093      H1113   1.046       .  S
N1093      H1114   1.045       .  S
C1095      C1098   1.406       .  A
C1095      C1102   1.411       .  A
N1096      H1111   1.046       .  S
N1096      H1112   1.046       .  S
C1098      C1099   1.403       .  A
C1098      H1103   1.084       .  S
C1099      C1100   1.412       .  A
C1099      N1104   1.437       .  S
C1100      C1101   1.406       .  A
C1101      C1102   1.406       .  A
C1101      H1105   1.084       .  S
C1102      N1106   1.438       .  S
N1104      H1107   1.046       .  S
N1104      H1108   1.044       .  S
N1106      H1109   1.046       .  S
N1106      H1110   1.046       .  S
C1115      C1116   1.417       .  A
C1115      C1120   1.403       .  A
C1116      C1117   1.408       .  A
C1116      N1121   1.438       .  S
C1117      C1118   1.402       .  A
C1117      H1122   1.084       .  S
C1118      C1119   1.418       .  A
C1118      C1123   1.484       .  S
C1119      C1120   1.400       .  A
C1119      N1124   1.440       .  S
C1120      H1125   1.084       .  S
N1121      H1141   1.045       .  S
N1121      H1142   1.046       .  S
C1123      C1126   1.404       .  A
C1123      C1130   1.407       .  A
N1124      H1139   1.046       .  S
N1124      H1140   1.043       .  S
C1126      C1127   1.404       .  A
C1126      H1131   1.084       .  S
C1127      C1128   1.416       .  A
C1127      N1132   1.437       .  S
C1128      C1129   1.406       .  A
C1129      C1130   1.407       .  A
C1129      H1133   1.084       .  S
C1130      N1134   1.437       .  S
N1132      H1135   1.046       .  S
N1132      H1136   1.044       .  S
N1134      H1137   1.045       .  S
N1134      H1138   1.045       .  S
C1143      C1144   1.413       .  A
C1143      C1148   1.405       .  A
C1144      C1145   1.407       .  A
C1144      N1149   1.437       .  S
C1145      C1146   1.409       .  A
C1145      H1150   1.084       .  S
C1146      C1147   1.416       .  A
C1146      C1151   1.495       .  S
C1147      C1148   1.397       .  A
C1147      N1152   1.434       .  S
C1148      H1153   1.084       .  S
N1149      H1169   1.045       .  S
N1149      H1170   1.045       .  S
C1151      C1154   1.401       .  A
C1151      C1158   1.416       .  A
N1152      H1167   1.042       .  S
N1152      H1168   1.046       .  S
C1154      C1155   1.404       .  A
C1154      H1159   1.082       .  S
C1155      C1156   1.417       .  A
C1155      N1160   1.439       .  S
C1156      C1157   1.402       .  A
C1157      C1158   1.410       .  A
C1157      H1161   1.083       .  S
C1158      N1162   1.436       .  S
N1160      H1163   1.046       .  S
N1160      H1164   1.045       .  S
N1162      H1165   1.046       .  S
N1162      H1166   1.044       .  S
C1171      C1172   1.415       .  A
C1171      C1176   1.405       .  A
C1172      C1173   1.401       .  A
C1172      N1177   1.438       .  S
C1173      C1174   1.403       .  A
C1173      H1178   1.084       .  S
C1174      C1175   1.409       .  A
C1174      C1179   1.482       .  S
C1175      C1176   1.405       .  A
C1175      N1180   1.438       .  S
C1176      H1181   1.084       .  S
N1177      H1197   1.043       .  S
N1177      H1198   1.046       .  S
C1179      C1182   1.405       .  A
C1179      C1186   1.408       .  A
N1180      H1195   1.046       .  S
N1180      H1196   1.046       .  S
C1182      C1183   1.404       .  A
C1182      H1187   1.084       .  S
C1183      C1184   1.411       .  A
C1183      N1188   1.438       .  S
C1184      C1185   1.407       .  A
C1185      C1186   1.406       .  A
C1185      H1189   1.084   1_545  S
C1186      N1190   1.438   1_545  S
N1188      H1191   1.046       .  S
N1188      H1192   1.046       .  S
N1190      H1193   1.046       .  S
N1190      H1194   1.043   1_565  S
C1199      C1200   1.415       .  A
C1199      C1204   1.399       .  A
C1200      C1201   1.404       .  A
C1200      N1205   1.433       .  S
C1201      C1202   1.401       .  A
C1201      H1206   1.084       .  S
C1202      C1203   1.414       .  A
C1202      C1207   1.490       .  S
C1203      C1204   1.405       .  A
C1203      N1208   1.434       .  S
C1204      H1209   1.084       .  S
N1205      H1225   1.046       .  S
N1205      H1226   1.045       .  S
C1207      C1210   1.406       .  A
C1207      C1214   1.412       .  A
N1208      H1223   1.045       .  S
N1208      H1224   1.044       .  S
C1210      C1211   1.406       .  A
C1210      H1215   1.084       .  S
C1211      C1212   1.409       .  A
C1211      N1216   1.438       .  S
C1212      C1213   1.405       .  A
C1213      C1214   1.406       .  A
C1213      H1217   1.084       .  S
C1214      N1218   1.438       .  S
N1216      H1219   1.046       .  S
N1216      H1220   1.046       .  S
N1218      H1221   1.046       .  S
N1218      H1222   1.046       .  S
C1227      C1228   1.414       .  A
C1227      C1232   1.403       .  A
C1228      C1229   1.401       .  A
C1228      N1233   1.437       .  S
C1229      C1230   1.404       .  A
C1229      H1234   1.084       .  S
C1230      C1231   1.412       .  A
C1230      C1235   1.489       .  S
C1231      C1232   1.406       .  A
C1231      N1236   1.438       .  S
C1232      H1237   1.084       .  S
N1233      H1253   1.045       .  S
N1233      H1254   1.046       .  S
C1235      C1238   1.405       .  A
C1235      C1242   1.408       .  A
N1236      H1251   1.046       .  S
N1236      H1252   1.045       .  S
C1238      C1239   1.407       .  A
C1238      H1243   1.084       .  S
C1239      C1240   1.413       .  A
C1239      N1244   1.438       .  S
C1240      C1241   1.408       .  A
C1241      C1242   1.407       .  A
C1241      H1245   1.084   1_545  S
C1242      N1246   1.438   1_545  S
N1244      H1247   1.046       .  S
N1244      H1248   1.044       .  S
N1246      H1249   1.045       .  S
N1246      H1250   1.046       .  S
C1255      C1256   1.415       .  A
C1255      C1260   1.402       .  A
C1256      C1257   1.413       .  A
C1256      N1261   1.438       .  S
C1257      C1258   1.405       .  A
C1257      H1262   1.083       .  S
C1258      C1259   1.418       .  A
C1258      C1263   1.503       .  S
C1259      C1260   1.411       .  A
C1259      N1264   1.438       .  S
C1260      H1265   1.084       .  S
N1261      H1281   1.046       .  S
N1261      H1282   1.046       .  S
C1263      C1266   1.405       .  A
C1263      C1270   1.421       .  A
N1264      H1279   1.045       .  S
N1264      H1280   1.045       .  S
C1266      C1267   1.406       .  A
C1266      H1271   1.083       .  S
C1267      C1268   1.417       .  A
C1267      N1272   1.436       .  S
C1268      C1269   1.404       .  A
C1269      C1270   1.407       .  A
C1269      H1273   1.084       .  S
C1270      N1274   1.438       .  S
N1272      H1275   1.045       .  S
N1272      H1276   1.046       .  S
N1274      H1277   1.046       .  S
N1274      H1278   1.044       .  S
C1283      C1284   1.410       .  A
C1283      C1288   1.403       .  A
C1284      C1285   1.400       .  A
C1284      N1289   1.438       .  S
C1285      C1286   1.407       .  A
C1285      H1290   1.083       .  S
C1286      C1287   1.414       .  A
C1286      C1291   1.498       .  S
C1287      C1288   1.408       .  A
C1287      N1292   1.432       .  S
C1288      H1293   1.084       .  S
N1289      H1309   1.046       .  S
N1289      H1310   1.045       .  S
C1291      C1294   1.402       .  A
C1291      C1298   1.421       .  A
N1292      H1307   1.045       .  S
N1292      H1308   1.046       .  S
C1294      C1295   1.397       .  A
C1294      H1299   1.083       .  S
C1295      C1296   1.415       .  A
C1295      N1300   1.439       .  S
C1296      C1297   1.402       .  A
C1297      C1298   1.415       .  A
C1297      H1301   1.083       .  S
C1298      N1302   1.436       .  S
N1300      H1303   1.046       .  S
N1300      H1304   1.045       .  S
N1302      H1305   1.043       .  S
N1302      H1306   1.046       .  S
C1311      C1312   1.411       .  A
C1311      C1316   1.402       .  A
C1312      C1313   1.397       .  A
C1312      N1317   1.433       .  S
C1313      C1314   1.406       .  A
C1313      H1318   1.083       .  S
C1314      C1315   1.414       .  A
C1314      C1319   1.493       .  S
C1315      C1316   1.408       .  A
C1315      N1320   1.437       .  S
C1316      H1321   1.084       .  S
N1317      H1337   1.045       .  S
N1317      H1338   1.045       .  S
C1319      C1322   1.409       .  A
C1319      C1326   1.409       .  A
N1320      H1335   1.046       .  S
N1320      H1336   1.045       .  S
C1322      C1323   1.410       .  A
C1322      H1327   1.083       .  S
C1323      C1324   1.410       .  A
C1323      N1328   1.437       .  S
C1324      C1325   1.409       .  A
C1325      C1326   1.403       .  A
C1325      H1329   1.082       .  S
C1326      N1330   1.438       .  S
N1328      H1331   1.046       .  S
N1328      H1332   1.046       .  S
N1330      H1333   1.046       .  S
N1330      H1334   1.046       .  S
C1339      C1340   1.408       .  A
C1339      C1344   1.406       .  A
C1340      C1341   1.405       .  A
C1340      N1345   1.438       .  S
C1341      C1342   1.406       .  A
C1341      H1346   1.082       .  S
C1342      C1343   1.412       .  A
C1342      C1347   1.493       .  S
C1343      C1344   1.409       .  A
C1343      N1348   1.437       .  S
C1344      H1349   1.084       .  S
N1345      H1365   1.045       .  S
N1345      H1366   1.046       .  S
C1347      C1350   1.403       .  A
C1347      C1354   1.414       .  A
N1348      H1363   1.046       .  S
N1348      H1364   1.046       .  S
C1350      C1351   1.401       .  A
C1350      H1355   1.083       .  S
C1351      C1352   1.418       .  A
C1351      N1356   1.438       .  S
C1352      C1353   1.402       .  A
C1353      C1354   1.408       .  A
C1353      H1357   1.084       .  S
C1354      N1358   1.437       .  S
N1356      H1359   1.046       .  S
N1356      H1360   1.045       .  S
N1358      H1361   1.046       .  S
N1358      H1362   1.045       .  S
C1367      C1368   1.415       .  A
C1367      C1372   1.404       .  A
C1368      C1369   1.408       .  A
C1368      N1373   1.438       .  S
C1369      C1370   1.404       .  A
C1369      H1374   1.083       .  S
C1370      C1371   1.416       .  A
C1370      C1375   1.497       .  S
C1371      C1372   1.408       .  A
C1371      N1376   1.437       .  S
C1372      H1377   1.083       .  S
N1373      H1393   1.046       .  S
N1373      H1394   1.046       .  S
C1375      C1378   1.405       .  A
C1375      C1382   1.415       .  A
N1376      H1391   1.045       .  S
N1376      H1392   1.046       .  S
C1378      C1379   1.406       .  A
C1378      H1383   1.083       .  S
C1379      C1380   1.410       .  A
C1379      N1384   1.439       .  S
C1380      C1381   1.403       .  A
C1381      C1382   1.409       .  A
C1381      H1385   1.084       .  S
C1382      N1386   1.437       .  S
N1384      H1387   1.045       .  S
N1384      H1388   1.045       .  S
N1386      H1389   1.046       .  S
N1386      H1390   1.045       .  S
C1395      C1396   1.418       .  A
C1395      C1400   1.401       .  A
C1396      C1397   1.408       .  A
C1396      N1401   1.432       .  S
C1397      C1398   1.399       .  A
C1397      H1402   1.084       .  S
C1398      C1399   1.410       .  A
C1398      C1403   1.490       .  S
C1399      C1400   1.409       .  A
C1399      N1404   1.429   1_556  S
C1400      H1405   1.083   1_556  S
N1401      H1421   1.045       .  S
N1401      H1422   1.046       .  S
C1403      C1406   1.401       .  A
C1403      C1410   1.412       .  A
N1404      H1419   1.044       .  S
N1404      H1420   1.045       .  S
C1406      C1407   1.410       .  A
C1406      H1411   1.083       .  S
C1407      C1408   1.417       .  A
C1407      N1412   1.439       .  S
C1408      C1409   1.404       .  A
C1409      C1410   1.409       .  A
C1409      H1413   1.084       .  S
C1410      N1414   1.437       .  S
N1412      H1415   1.046       .  S
N1412      H1416   1.045   1_556  S
N1414      H1417   1.046       .  S
N1414      H1418   1.046       .  S
C1423      C1424   1.419       .  A
C1423      C1428   1.404       .  A
C1424      C1425   1.405       .  A
C1424      N1429   1.438       .  S
C1425      C1426   1.399       .  A
C1425      H1430   1.083       .  S
C1426      C1427   1.414       .  A
C1426      C1431   1.488       .  S
C1427      C1428   1.409       .  A
C1427      N1432   1.438       .  S
C1428      H1433   1.083       .  S
N1429      H1449   1.045       .  S
N1429      H1450   1.046       .  S
C1431      C1434   1.403       .  A
C1431      C1438   1.412       .  A
N1432      H1447   1.046       .  S
N1432      H1448   1.046       .  S
C1434      C1435   1.401       .  A
C1434      H1439   1.084       .  S
C1435      C1436   1.414       .  A
C1435      N1440   1.438       .  S
C1436      C1437   1.404       .  A
C1437      C1438   1.407       .  A
C1437      H1441   1.084       .  S
C1438      N1442   1.438       .  S
N1440      H1443   1.046       .  S
N1440      H1444   1.044       .  S
N1442      H1445   1.046       .  S
N1442      H1446   1.044       .  S
C1451      C1452   1.414       .  A
C1451      C1456   1.400       .  A
C1452      C1453   1.411       .  A
C1452      N1457   1.437       .  S
C1453      C1454   1.403       .  A
C1453      H1458   1.083       .  S
C1454      C1455   1.420       .  A
C1454      C1459   1.494       .  S
C1455      C1456   1.404       .  A
C1455      N1460   1.436   1_556  S
C1456      H1461   1.084   1_556  S
N1457      H1477   1.046       .  S
N1457      H1478   1.046       .  S
C1459      C1462   1.406       .  A
C1459      C1466   1.410       .  A
N1460      H1475   1.044       .  S
N1460      H1476   1.043       .  S
C1462      C1463   1.409       .  A
C1462      H1467   1.084       .  S
C1463      C1464   1.409       .  A
C1463      N1468   1.437       .  S
C1464      C1465   1.408       .  A
C1465      C1466   1.410       .  A
C1465      H1469   1.084       .  S
C1466      N1470   1.437       .  S
N1468      H1471   1.046       .  S
N1468      H1472   1.045       .  S
N1470      H1473   1.046       .  S
N1470      H1474   1.045       .  S
C1479      C1480   1.415       .  A
C1479      C1484   1.403       .  A
C1480      C1481   1.402       .  A
C1480      N1485   1.438       .  S
C1481      C1482   1.407       .  A
C1481      H1486   1.083       .  S
C1482      C1483   1.422       .  A
C1482      C1487   1.501       .  S
C1483      C1484   1.407       .  A
C1483      N1488   1.439       .  S
C1484      H1489   1.084       .  S
N1485      H1505   1.044       .  S
N1485      H1506   1.046       .  S
C1487      C1490   1.410       .  A
C1487      C1494   1.412       .  A
N1488      H1503   1.046       .  S
N1488      H1504   1.043       .  S
C1490      C1491   1.412       .  A
C1490      H1495   1.083       .  S
C1491      C1492   1.412       .  A
C1491      N1496   1.437       .  S
C1492      C1493   1.409       .  A
C1493      C1494   1.406       .  A
C1493      H1497   1.083   1_545  S
C1494      N1498   1.438       .  S
N1496      H1499   1.046       .  S
N1496      H1500   1.046       .  S
N1498      H1501   1.046   1_545  S
N1498      H1502   1.046   1_545  S
C1507      C1508   1.416       .  A
C1507      C1512   1.404       .  A
C1508      C1509   1.407       .  A
C1508      N1513   1.437   1_545  S
C1509      C1510   1.400       .  A
C1509      H1514   1.084   1_545  S
C1510      C1511   1.412       .  A
C1510      C1515   1.487       .  S
C1511      C1512   1.407       .  A
C1511      N1516   1.438       .  S
C1512      H1517   1.084       .  S
N1513      H1533   1.046       .  S
N1513      H1534   1.046       .  S
C1515      C1518   1.405       .  A
C1515      C1522   1.418       .  A
N1516      H1531   1.045       .  S
N1516      H1532   1.046       .  S
C1518      C1519   1.401       .  A
C1518      H1523   1.084       .  S
C1519      C1520   1.413       .  A
C1519      N1524   1.438       .  S
C1520      C1521   1.403       .  A
C1521      C1522   1.404       .  A
C1521      H1525   1.084       .  S
C1522      N1526   1.439       .  S
N1524      H1527   1.045       .  S
N1524      H1528   1.044       .  S
N1526      H1529   1.046       .  S
N1526      H1530   1.041       .  S
C1535      C1536   1.410       .  A
C1535      C1540   1.409       .  A
C1536      C1537   1.408       .  A
C1536      N1541   1.438       .  S
C1537      C1538   1.407       .  A
C1537      H1542   1.083       .  S
C1538      C1539   1.411       .  A
C1538      C1543   1.496       .  S
C1539      C1540   1.410       .  A
C1539      N1544   1.437       .  S
C1540      H1545   1.084       .  S
N1541      H1561   1.045       .  S
N1541      H1562   1.046       .  S
C1543      C1546   1.406       .  A
C1543      C1550   1.411       .  A
N1544      H1559   1.046       .  S
N1544      H1560   1.045       .  S
C1546      C1547   1.404       .  A
C1546      H1551   1.084       .  S
C1547      C1548   1.415       .  A
C1547      N1552   1.437       .  S
C1548      C1549   1.407       .  A
C1549      C1550   1.406       .  A
C1549      H1553   1.084       .  S
C1550      N1554   1.432       .  S
N1552      H1555   1.045       .  S
N1552      H1556   1.044       .  S
N1554      H1557   1.046       .  S
N1554      H1558   1.046       .  S
C1563      C1564   1.413       .  A
C1563      C1568   1.406       .  A
C1564      C1565   1.399       .  A
C1564      N1569   1.433       .  S
C1565      C1566   1.406       .  A
C1565      H1570   1.083       .  S
C1566      C1567   1.414       .  A
C1566      C1571   1.496       .  S
C1567      C1568   1.410       .  A
C1567      N1572   1.437       .  S
C1568      H1573   1.084       .  S
N1569      H1589   1.045       .  S
N1569      H1590   1.045   1_455  S
C1571      C1574   1.411       .  A
C1571      C1578   1.409       .  A
N1572      H1587   1.046       .  S
N1572      H1588   1.045       .  S
C1574      C1575   1.413       .  A
C1574      H1579   1.083       .  S
C1575      C1576   1.412       .  A
C1575      N1580   1.437       .  S
C1576      C1577   1.409       .  A
C1577      C1578   1.401       .  A
C1577      H1581   1.084       .  S
C1578      N1582   1.438       .  S
N1580      H1583   1.046       .  S
N1580      H1584   1.045       .  S
N1582      H1585   1.046       .  S
N1582      H1586   1.046       .  S
C1591      C1592   1.414       .  A
C1591      C1596   1.404       .  A
C1592      C1593   1.408       .  A
C1592      N1597   1.437       .  S
C1593      C1594   1.401       .  A
C1593      H1598   1.083       .  S
C1594      C1595   1.411       .  A
C1594      C1599   1.484       .  S
C1595      C1596   1.405       .  A
C1595      N1600   1.438       .  S
C1596      H1601   1.084       .  S
N1597      H1617   1.046       .  S
N1597      H1618   1.046       .  S
C1599      C1602   1.404       .  A
C1599      C1606   1.411       .  A
N1600      H1615   1.046       .  S
N1600      H1616   1.046       .  S
C1602      C1603   1.402       .  A
C1602      H1607   1.084       .  S
C1603      C1604   1.415       .  A
C1603      N1608   1.438       .  S
C1604      C1605   1.405       .  A
C1605      C1606   1.400       .  A
C1605      H1609   1.084       .  S
C1606      N1610   1.432       .  S
N1608      H1611   1.045       .  S
N1608      H1612   1.044       .  S
N1610      H1613   1.045       .  S
N1610      H1614   1.046       .  S
C1619      C1620   1.415       .  A
C1619      C1624   1.410       .  A
C1620      C1621   1.410       .  A
C1620      N1625   1.437       .  S
C1621      C1622   1.407       .  A
C1621      H1626   1.083       .  S
C1622      C1623   1.410       .  A
C1622      C1627   1.496       .  S
C1623      C1624   1.406       .  A
C1623      N1628   1.438       .  S
C1624      H1629   1.083       .  S
N1625      H1645   1.046       .  S
N1625      H1646   1.046       .  S
C1627      C1630   1.405       .  A
C1627      C1634   1.414       .  A
N1628      H1643   1.046       .  S
N1628      H1644   1.046       .  S
C1630      C1631   1.405       .  A
C1630      H1635   1.083       .  S
C1631      C1632   1.410       .  A
C1631      N1636   1.438       .  S
C1632      C1633   1.402       .  A
C1633      C1634   1.409       .  A
C1633      H1637   1.084       .  S
C1634      N1638   1.437       .  S
N1636      H1639   1.046       .  S
N1636      H1640   1.046       .  S
N1638      H1641   1.046       .  S
N1638      H1642   1.045       .  S
C1647      C1648   1.420       .  A
C1647      C1652   1.409       .  A
C1648      C1649   1.407       .  A
C1648      N1653   1.438   1_455  S
C1649      C1650   1.407       .  A
C1649      H1654   1.084   1_455  S
C1650      C1651   1.410       .  A
C1650      C1655   1.498       .  S
C1651      C1652   1.411       .  A
C1651      N1656   1.437       .  S
C1652      H1657   1.084       .  S
N1653      H1673   1.042       .  S
N1653      H1674   1.045       .  S
C1655      C1658   1.404       .  A
C1655      C1662   1.413       .  A
N1656      H1671   1.046       .  S
N1656      H1672   1.046       .  S
C1658      C1659   1.406       .  A
C1658      H1663   1.083       .  S
C1659      C1660   1.418       .  A
C1659      N1664   1.437       .  S
C1660      C1661   1.405       .  A
C1661      C1662   1.411       .  A
C1661      H1665   1.084       .  S
C1662      N1666   1.437       .  S
N1664      H1667   1.046   1_455  S
N1664      H1668   1.045       .  S
N1666      H1669   1.046       .  S
N1666      H1670   1.046       .  S
C1675      C1676   1.415       .  A
C1675      C1680   1.413       .  A
C1676      C1677   1.415       .  A
C1676      N1681   1.436       .  S
C1677      C1678   1.410       .  A
C1677      H1682   1.083       .  S
C1678      C1679   1.406       .  A
C1678      C1683   1.497       .  S
C1679      C1680   1.398       .  A
C1679      N1684   1.433       .  S
C1680      H1685   1.080       .  S
N1681      H1701   1.046       .  S
N1681      H1702   1.046       .  S
C1683      C1686   1.408       .  A
C1683      C1690   1.413       .  A
N1684      H1699   1.045       .  S
N1684      H1700   1.046       .  S
C1686      C1687   1.411       .  A
C1686      H1691   1.083       .  S
C1687      C1688   1.411       .  A
C1687      N1692   1.438       .  S
C1688      C1689   1.402       .  A
C1689      C1690   1.401       .  A
C1689      H1693   1.085       .  S
C1690      N1694   1.433       .  S
N1692      H1695   1.046       .  S
N1692      H1696   1.046       .  S
N1694      H1697   1.046       .  S
N1694      H1698   1.046       .  S
C1703      C1704   1.416       .  A
C1703      C1708   1.402       .  A
C1704      C1705   1.401       .  A
C1704      N1709   1.438       .  S
C1705      C1706   1.401       .  A
C1705      H1710   1.082       .  S
C1706      C1707   1.421       .  A
C1706      C1711   1.502       .  S
C1707      C1708   1.417       .  A
C1707      N1712   1.437       .  S
C1708      H1713   1.083       .  S
N1709      H1729   1.045       .  S
N1709      H1730   1.046       .  S
C1711      C1714   1.408       .  A
C1711      C1718   1.414       .  A
N1712      H1727   1.046       .  S
N1712      H1728   1.046       .  S
C1714      C1715   1.407       .  A
C1714      H1719   1.083       .  S
C1715      C1716   1.414       .  A
C1715      N1720   1.436       .  S
C1716      C1717   1.405       .  A
C1717      C1718   1.405       .  A
C1717      H1721   1.085       .  S
C1718      N1722   1.432       .  S
N1720      H1723   1.046       .  S
N1720      H1724   1.045       .  S
N1722      H1725   1.046       .  S
N1722      H1726   1.046       .  S
C1731      C1732   1.412       .  A
C1731      C1736   1.411       .  A
C1732      C1733   1.412       .  A
C1732      N1737   1.438       .  S
C1733      C1734   1.407       .  A
C1733      H1738   1.084       .  S
C1734      C1735   1.408       .  A
C1734      C1739   1.495       .  S
C1735      C1736   1.411       .  A
C1735      N1740   1.437       .  S
C1736      H1741   1.084       .  S
N1737      H1757   1.045       .  S
N1737      H1758   1.046       .  S
C1739      C1742   1.403       .  A
C1739      C1746   1.412       .  A
N1740      H1755   1.046       .  S
N1740      H1756   1.046       .  S
C1742      C1743   1.408       .  A
C1742      H1747   1.084       .  S
C1743      C1744   1.419       .  A
C1743      N1748   1.436       .  S
C1744      C1745   1.405       .  A
C1745      C1746   1.410       .  A
C1745      H1749   1.084       .  S
C1746      N1750   1.437       .  S
N1748      H1751   1.046       .  S
N1748      H1752   1.045       .  S
N1750      H1753   1.046       .  S
N1750      H1754   1.046       .  S
C1759      C1760   1.413       .  A
C1759      C1764   1.410       .  A
C1760      C1761   1.412       .  A
C1760      N1765   1.437       .  S
C1761      C1762   1.408       .  A
C1761      H1766   1.083       .  S
C1762      C1763   1.409       .  A
C1762      C1767   1.495       .  S
C1763      C1764   1.405       .  A
C1763      N1768   1.438       .  S
C1764      H1769   1.083       .  S
N1765      H1785   1.046       .  S
N1765      H1786   1.046       .  S
C1767      C1770   1.403       .  A
C1767      C1774   1.413       .  A
N1768      H1783   1.046       .  S
N1768      H1784   1.046       .  S
C1770      C1771   1.400       .  A
C1770      H1775   1.084       .  S
C1771      C1772   1.418       .  A
C1771      N1776   1.438       .  S
C1772      C1773   1.404       .  A
C1773      C1774   1.410       .  A
C1773      H1777   1.084       .  S
C1774      N1778   1.437       .  S
N1776      H1779   1.046       .  S
N1776      H1780   1.044       .  S
N1778      H1781   1.046       .  S
N1778      H1782   1.045       .  S
C1787      C1788   1.413       .  A
C1787      C1792   1.400       .  A
C1788      C1789   1.402       .  A
C1788      N1793   1.439       .  S
C1789      C1790   1.403       .  A
C1789      H1794   1.083       .  S
C1790      C1791   1.418       .  A
C1790      C1795   1.497       .  S
C1791      C1792   1.409       .  A
C1791      N1796   1.432       .  S
C1792      H1797   1.083       .  S
N1793      H1813   1.046       .  S
N1793      H1814   1.045       .  S
C1795      C1798   1.406       .  A
C1795      C1802   1.422       .  A
N1796      H1811   1.046   1_455  S
N1796      H1812   1.046       .  S
C1798      C1799   1.396   1_455  A
C1798      H1803   1.083   1_455  S
C1799      C1800   1.414   1_655  A
C1799      N1804   1.434       .  S
C1800      C1801   1.402       .  A
C1801      C1802   1.406       .  A
C1801      H1805   1.084       .  S
C1802      N1806   1.438       .  S
N1804      H1807   1.045       .  S
N1804      H1808   1.045       .  S
N1806      H1809   1.046       .  S
N1806      H1810   1.043       .  S
C1815      C1816   1.413       .  A
C1815      C1820   1.414       .  A
C1816      C1817   1.413       .  A
C1816      N1821   1.431       .  S
C1817      C1818   1.409       .  A
C1817      H1822   1.083       .  S
C1818      C1819   1.409       .  A
C1818      C1823   1.499       .  S
C1819      C1820   1.405       .  A
C1819      N1824   1.439       .  S
C1820      H1825   1.082       .  S
N1821      H1841   1.046       .  S
N1821      H1842   1.045       .  S
C1823      C1826   1.406       .  A
C1823      C1830   1.414       .  A
N1824      H1839   1.046       .  S
N1824      H1840   1.046       .  S
C1826      C1827   1.400       .  A
C1826      H1831   1.084       .  S
C1827      C1828   1.414       .  A
C1827      N1832   1.433       .  S
C1828      C1829   1.405       .  A
C1829      C1830   1.413       .  A
C1829      H1833   1.084       .  S
C1830      N1834   1.437       .  S
N1832      H1835   1.045       .  S
N1832      H1836   1.045       .  S
N1834      H1837   1.046       .  S
N1834      H1838   1.045       .  S
C1843      C1844   1.416       .  A
C1843      C1848   1.404       .  A
C1844      C1845   1.414       .  A
C1844      N1849   1.437       .  S
C1845      C1846   1.404       .  A
C1845      H1850   1.083       .  S
C1846      C1847   1.418       .  A
C1846      C1851   1.505       .  S
C1847      C1848   1.415       .  A
C1847      N1852   1.438       .  S
C1848      H1853   1.084       .  S
N1849      H1869   1.046       .  S
N1849      H1870   1.046       .  S
C1851      C1854   1.405       .  A
C1851      C1858   1.421       .  A
N1852      H1867   1.046       .  S
N1852      H1868   1.044       .  S
C1854      C1855   1.411       .  A
C1854      H1859   1.084       .  S
C1855      C1856   1.421       .  A
C1855      N1860   1.436       .  S
C1856      C1857   1.406       .  A
C1857      C1858   1.410       .  A
C1857      H1861   1.084       .  S
C1858      N1862   1.439       .  S
N1860      H1863   1.046       .  S
N1860      H1864   1.046       .  S
N1862      H1865   1.045       .  S
N1862      H1866   1.043       .  S
C1871      C1872   1.410       .  A
C1871      C1876   1.408       .  A
C1872      C1873   1.406       .  A
C1872      N1877   1.432       .  S
C1873      C1874   1.406       .  A
C1873      H1878   1.084       .  S
C1874      C1875   1.410       .  A
C1874      C1879   1.492       .  S
C1875      C1876   1.409       .  A
C1875      N1880   1.437       .  S
C1876      H1881   1.084       .  S
N1877      H1897   1.046       .  S
N1877      H1898   1.046       .  S
C1879      C1882   1.403       .  A
C1879      C1886   1.412       .  A
N1880      H1895   1.046       .  S
N1880      H1896   1.046       .  S
C1882      C1883   1.403       .  A
C1882      H1887   1.084       .  S
C1883      C1884   1.417       .  A
C1883      N1888   1.437       .  S
C1884      C1885   1.404       .  A
C1885      C1886   1.409       .  A
C1885      H1889   1.084       .  S
C1886      N1890   1.437       .  S
N1888      H1891   1.046       .  S
N1888      H1892   1.045       .  S
N1890      H1893   1.046       .  S
N1890      H1894   1.046       .  S
C1899      C1900   1.414       .  A
C1899      C1904   1.403       .  A
C1900      C1901   1.408       .  A
C1900      N1905   1.432       .  S
C1901      C1902   1.402       .  A
C1901      H1906   1.084       .  S
C1902      C1903   1.414       .  A
C1902      C1907   1.494       .  S
C1903      C1904   1.411       .  A
C1903      N1908   1.438       .  S
C1904      H1909   1.084       .  S
N1905      H1925   1.046       .  S
N1905      H1926   1.046       .  S
C1907      C1910   1.405       .  A
C1907      C1914   1.417       .  A
N1908      H1923   1.046       .  S
N1908      H1924   1.046       .  S
C1910      C1911   1.409       .  A
C1910      H1915   1.084       .  S
C1911      C1912   1.412       .  A
C1911      N1916   1.439       .  S
C1912      C1913   1.409       .  A
C1913      C1914   1.407       .  A
C1913      H1917   1.084       .  S
C1914      N1918   1.438       .  S
N1916      H1919   1.046       .  S
N1916      H1920   1.046       .  S
N1918      H1921   1.045       .  S
N1918      H1922   1.043       .  S
C1927      C1928   1.415       .  A
C1927      C1932   1.404       .  A
C1928      C1929   1.402       .  A
C1928      N1933   1.433       .  S
C1929      C1930   1.403       .  A
C1929      H1934   1.083       .  S
C1930      C1931   1.418       .  A
C1930      C1935   1.497       .  S
C1931      C1932   1.411       .  A
C1931      N1936   1.438       .  S
C1932      H1937   1.083       .  S
N1933      H1953   1.046       .  S
N1933      H1954   1.046       .  S
C1935      C1938   1.407       .  A
C1935      C1942   1.413       .  A
N1936      H1951   1.046       .  S
N1936      H1952   1.046       .  S
C1938      C1939   1.405       .  A
C1938      H1943   1.083       .  S
C1939      C1940   1.415       .  A
C1939      N1944   1.438       .  S
C1940      C1941   1.401       .  A
C1941      C1942   1.401       .  A
C1941      H1945   1.085       .  S
C1942      N1946   1.433       .  S
N1944      H1947   1.045       .  S
N1944      H1948   1.044       .  S
N1946      H1949   1.046       .  S
N1946      H1950   1.046       .  S
C1955      C1956   1.415       .  A
C1955      C1960   1.404       .  A
C1956      C1957   1.409       .  A
C1956      N1961   1.437       .  S
C1957      C1958   1.399       .  A
C1957      H1962   1.084       .  S
C1958      C1959   1.412       .  A
C1958      C1963   1.485       .  S
C1959      C1960   1.409       .  A
C1959      N1964   1.439       .  S
C1960      H1965   1.084       .  S
N1961      H1981   1.045       .  S
N1961      H1982   1.046       .  S
C1963      C1966   1.403       .  A
C1963      C1970   1.409       .  A
N1964      H1979   1.046   1_556  S
N1964      H1980   1.046   1_556  S
C1966      C1967   1.405       .  A
C1966      H1971   1.084       .  S
C1967      C1968   1.411       .  A
C1967      N1972   1.439       .  S
C1968      C1969   1.406       .  A
C1969      C1970   1.408       .  A
C1969      H1973   1.084       .  S
C1970      N1974   1.437       .  S
N1972      H1975   1.046       .  S
N1972      H1976   1.045       .  S
N1974      H1977   1.046       .  S
N1974      H1978   1.046       .  S
C1983      C1984   1.410       .  A
C1983      C1988   1.409       .  A
C1984      C1985   1.411       .  A
C1984      N1989   1.437       .  S
C1985      C1986   1.409       .  A
C1985      H1990   1.083       .  S
C1986      C1987   1.409       .  A
C1986      C1991   1.490       .  S
C1987      C1988   1.401       .  A
C1987      N1992   1.438       .  S
C1988      H1993   1.084       .  S
N1989      H2009   1.045       .  S
N1989      H2010   1.046       .  S
C1991      C1994   1.404       .  A
C1991      C1998   1.413       .  A
N1992      H2007   1.046       .  S
N1992      H2008   1.046       .  S
C1994      C1995   1.403       .  A
C1994      H1999   1.083       .  S
C1995      C1996   1.409       .  A
C1995      N2000   1.438   1_455  S
C1996      C1997   1.404       .  A
C1997      C1998   1.408       .  A
C1997      H2001   1.084       .  S
C1998      N2002   1.437       .  S
N2000      H2003   1.046       .  S
N2000      H2004   1.045   1_655  S
N2002      H2005   1.046       .  S
N2002      H2006   1.045       .  S
