geometry optimzed in LAMMPS
_audit_creation_date              2020-12-01 
_audit_creation_method            'lammps2cif' 
_symmetry_space_group_name_H-M    'P1' 
_symmetry_Int_Tables_number       1 
_symmetry_cell_setting            triclinic 
loop_ 
_symmetry_equiv_pos_as_xyz 
  x,y,z 
_cell_length_a                    49.45370303 
_cell_length_b                    49.41859445172629 
_cell_length_c                    29.980543715765275 
_cell_angle_alpha                 90.09140714503015 
_cell_angle_beta                  90.04446848209008 
_cell_angle_gamma                 120.03508417488838 
loop_ 
_atom_site_label 
_atom_site_type_symbol 
_atom_site_fract_x 
_atom_site_fract_y 
_atom_site_fract_z 
_atom_site_charge 
O1          O  0.87826886  0.70373255  0.67971852    -0.74600
O2          O  0.79240432  0.66563126  0.64612830    -0.74600
O3          O  0.82428716  0.68202228  0.72466600    -0.74700
O4          O  0.84653603  0.68746138  0.60094046    -0.74800
O5          O  0.84231752  0.64044495  0.60491076    -0.74700
O6          O  0.81961500  0.63483294  0.72853744    -0.74700
O7          O  0.78848233  0.61871168  0.64948828    -0.74600
O8          O  0.87421467  0.65683722  0.68440472    -0.74700
Ni9        Ni  0.83555592  0.68638419  0.66270583     1.25400
Ni10       Ni  0.83109684  0.63606760  0.66698989     1.25400
C11         C  0.89019933  0.68660669  0.68887519     0.87600
C12         C  0.77649133  0.63590696  0.64130610     0.87500
C13         C  0.81863963  0.65771020  0.74718595     0.87500
C14         C  0.84696169  0.66435440  0.58214176     0.87700
O15         O  0.12198780  0.82762268  0.81697575    -0.74600
O16         O  0.20880692  0.87567181  0.84575064    -0.74600
O17         O  0.17471306  0.86012788  0.76898421    -0.74700
O18         O  0.15593530  0.84297577  0.89363790    -0.74800
O19         O  0.16017077  0.80030964  0.88740941    -0.74700
O20         O  0.17907778  0.81749589  0.76316420    -0.74700
O21         O  0.21286228  0.83289384  0.83970481    -0.74600
O22         O  0.12579843  0.78467963  0.81102023    -0.74700
Ni23       Ni  0.16519247  0.85310333  0.83154837     1.25400
Ni24       Ni  0.16956687  0.80730122  0.82502392     1.25400
C25         C  0.10962817  0.79836254  0.80872180     0.87600
C26         C  0.22505555  0.86210076  0.84842215     0.87500
C27         C  0.17989392  0.84149863  0.74547967     0.87500
C28         C  0.15569615  0.81922846  0.91132426     0.87700
O29         O  0.54337895  0.04343861  0.01648093    -0.74600
O30         O  0.45760676  0.00282141  0.98142184    -0.74600
O31         O  0.48933888  0.02186086  0.06056645    -0.74700
O32         O  0.51253555  0.02473020  0.93767457    -0.74800
O33         O  0.50909497  0.97820374  0.94476147    -0.74700
O34         O  0.48592264  0.97537814  0.06790177    -0.74700
O35         O  0.45451726  0.95648163  0.98856488    -0.74600
O36         O  0.54060314  0.99726899  0.02407058    -0.74700
Ni37       Ni  0.50072216  0.02478116  0.99873693     1.25400
Ni38       Ni  0.49738384  0.97515205  0.00657885     1.25400
C39         C  0.55600164  0.02717491  0.02705034     0.87600
C40         C  0.44204965  0.97296155  0.97817646     0.87500
C41         C  0.48508129  0.99876441  0.08498503     0.87500
C42         C  0.51435373  0.00183073  0.92081479     0.87700
O43         O  0.12541909  0.33453700  0.31157724    -0.74600
O44         O  0.21156426  0.37627537  0.34769010    -0.74600
O45         O  0.18045654  0.35808750  0.26792126    -0.74700
O46         O  0.15709393  0.35317388  0.39093982    -0.74800
O47         O  0.15464980  0.30704821  0.39678422    -0.74700
O48         O  0.17804190  0.31198738  0.27353583    -0.74700
O49         O  0.20907649  0.33010352  0.35295876    -0.74600
O50         O  0.12352306  0.28867038  0.31735163    -0.74700
Ni51       Ni  0.16866860  0.35714898  0.32924573     1.25400
Ni52       Ni  0.16622985  0.30784190  0.33533077     1.25400
C53         C  0.11047755  0.30466726  0.30754655     0.87600
C54         C  0.22415369  0.35984425  0.35774877     0.87500
C55         C  0.18237481  0.33550532  0.25005362     0.87500
C56         C  0.15330948  0.32995923  0.41462662     0.87700
O57         O  0.87399576  0.20943066  0.19217934    -0.74600
O58         O  0.78639535  0.16528322  0.16592657    -0.74600
O59         O  0.82123401  0.17979374  0.24156446    -0.74700
O60         O  0.83848298  0.19485480  0.11664330    -0.74800
O61         O  0.83957825  0.15044657  0.11064324    -0.74700
O62         O  0.82267635  0.13556032  0.23584800    -0.74700
O63         O  0.78730223  0.12077818  0.16024609    -0.74600
O64         O  0.87492620  0.16498082  0.18582433    -0.74700
Ni65       Ni  0.83004088  0.18893412  0.17936942     1.25400
Ni66       Ni  0.83116150  0.14136217  0.17298258     1.25400
C67         C  0.88889476  0.19439812  0.19382116     0.87600
C68         C  0.77259308  0.13592303  0.15745805     0.87500
C69         C  0.81943830  0.15541788  0.25946306     0.87500
C70         C  0.84105833  0.17472626  0.09280584     0.87700
O71         O  0.54164803  0.54365987  0.51939090    -0.74600
O72         O  0.45496422  0.49657752  0.48998575    -0.74600
O73         O  0.48856510  0.50982186  0.56625474    -0.74700
O74         O  0.50770900  0.53027630  0.44262911    -0.74800
O75         O  0.51208297  0.48790328  0.43276374    -0.74700
O76         O  0.49345707  0.46768589  0.55714926    -0.74700
O77         O  0.45893141  0.45394794  0.48071618    -0.74600
O78         O  0.54592379  0.50126246  0.50925411    -0.74700
Ni79       Ni  0.49812839  0.52159643  0.50484344     1.25400
Ni80       Ni  0.50270447  0.47614087  0.49457210     1.25400
C81         C  0.55794862  0.53009400  0.52010071     0.87600
C82         C  0.44261441  0.46753695  0.48030316     0.87500
C83         C  0.48843958  0.48574730  0.58231785     0.87500
C84         C  0.51247880  0.51224604  0.41709614     0.87700
O85         O  0.16934998  0.29028826  0.81875752    -0.74600
O86         O  0.12260034  0.33017763  0.85182678    -0.74600
O87         O  0.13704036  0.31164445  0.77351258    -0.74700
O88         O  0.15537975  0.30842425  0.89747053    -0.74800
O89         O  0.19796980  0.35548674  0.89166360    -0.74700
O90         O  0.18024498  0.35822775  0.76777673    -0.74700
O91         O  0.16581320  0.37658347  0.84513765    -0.74600
O92         O  0.21257032  0.33691877  0.81394155    -0.74700
Ni93       Ni  0.14451145  0.30846437  0.83571959     1.25400
Ni94       Ni  0.19065538  0.35840680  0.82946091     1.25400
C95         C  0.19847816  0.30713231  0.80964570     0.87600
C96         C  0.13668723  0.36011516  0.85429496     0.87500
C97         C  0.15621346  0.33508941  0.74994117     0.87500
C98         C  0.17933544  0.33178543  0.91518469     0.87700
O99         O  0.29269453  0.17056686  0.67687039    -0.74600
O100        O  0.33236109  0.12291536  0.64889818    -0.74600
O101        O  0.31329483  0.13859472  0.72522939    -0.74700
O102        O  0.31135219  0.15494321  0.60073276    -0.74800
O103        O  0.35783652  0.19820453  0.60683881    -0.74700
O104        O  0.36040581  0.18115489  0.73097834    -0.74700
O105        O  0.37885444  0.16622389  0.65421616    -0.74600
O106        O  0.33940642  0.21343144  0.68388661    -0.74700
Ni107      Ni  0.31077185  0.14519118  0.66270535     1.25400
Ni108      Ni  0.36076216  0.19127762  0.66919215     1.25400
C109        C  0.30955642  0.19974382  0.68595924     0.87600
C110        C  0.36223227  0.13693242  0.64599225     0.87500
C111        C  0.33695887  0.15747791  0.74876056     0.87500
C112        C  0.33440111  0.17905921  0.58309186     0.87700
O113        O  0.95411602  0.49907091  0.00988734    -0.74600
O114        O  0.99553861  0.45342465  0.97965459    -0.74600
O115        O  0.97487357  0.46686474  0.05701322    -0.74700
O116        O  0.97452530  0.48592469  0.93319866    -0.74800
O117        O  0.02087467  0.52913562  0.94168539    -0.74700
O118        O  0.02126304  0.51005961  0.06518549    -0.74700
O119        O  0.04154472  0.49691455  0.98823455    -0.74600
O120        O  0.00026689  0.54241156  0.01837447    -0.74700
Ni121      Ni  0.97312864  0.47472213  0.99468469     1.25400
Ni122      Ni  0.02259854  0.52114816  0.00373409     1.25400
C123        C  0.97035368  0.52815483  0.01985240     0.87600
C124        C  0.02545049  0.46800011  0.97732701     0.87500
C125        C  0.99770952  0.48589659  0.08176046     0.87500
C126        C  0.99802167  0.51029797  0.91688611     0.87700
O127        O  0.65788379  0.78293203  0.31824477    -0.74600
O128        O  0.61986190  0.83174922  0.34768337    -0.74600
O129        O  0.63813232  0.81632523  0.27099356    -0.74700
O130        O  0.63911566  0.79835704  0.39505185    -0.74800
O131        O  0.68640438  0.84051688  0.40198400    -0.74700
O132        O  0.68553876  0.85834963  0.27758075    -0.74700
O133        O  0.66708163  0.87400827  0.35416989    -0.74600
O134        O  0.70493800  0.82531870  0.32538584    -0.74700
Ni135      Ni  0.63707876  0.80580004  0.33273892     1.25400
Ni136      Ni  0.68763917  0.85105580  0.34006397     1.25400
C137        C  0.68774447  0.79629291  0.31598838     0.87600
C138        C  0.63729242  0.86088397  0.35650580     0.87500
C139        C  0.66189472  0.83990144  0.25361590     0.87500
C140        C  0.66259826  0.81684963  0.41918536     0.87700
O141        O  0.78084319  0.65639557  0.18430925    -0.74600
O142        O  0.82784961  0.61706260  0.15098744    -0.74600
O143        O  0.81442867  0.63603373  0.22939672    -0.74700
O144        O  0.79423395  0.63711024  0.10600479    -0.74800
O145        O  0.83661243  0.68411175  0.09837858    -0.74700
O146        O  0.85692024  0.68292246  0.22196803    -0.74700
O147        O  0.87040150  0.66393153  0.14356465    -0.74600
O148        O  0.82353495  0.70314021  0.17675046    -0.74700
Ni149      Ni  0.80281273  0.63500250  0.16796633     1.25400
Ni150      Ni  0.84837909  0.68516645  0.15985691     1.25400
C151        C  0.79469874  0.68627996  0.18725012     0.87600
C152        C  0.85674886  0.63407968  0.14069900     0.87500
C153        C  0.83850001  0.65963021  0.24642604     0.87500
C154        C  0.81256570  0.66037529  0.08152124     0.87700
O155        O  0.46122038  0.00076691  0.52139906    -0.74600
O156        O  0.50805295  0.96128246  0.49182848    -0.74600
O157        O  0.49354018  0.97987524  0.56885160    -0.74700
O158        O  0.47641102  0.98228048  0.44410839    -0.74800
O159        O  0.51918246  0.02916894  0.43865015    -0.74700
O160        O  0.53668783  0.02642111  0.56297368    -0.74700
O161        O  0.55133694  0.00767697  0.48534055    -0.74600
O162        O  0.50426308  0.04746491  0.51624892    -0.74700
Ni163      Ni  0.48328758  0.97945388  0.50678024     1.25400
Ni164      Ni  0.52942132  0.02936810  0.50059866     1.25400
C165        C  0.47503337  0.03056093  0.52479245     0.87600
C166        C  0.53709273  0.97776952  0.48248010     0.87500
C167        C  0.51775818  0.00291533  0.58665070     0.87500
C168        C  0.49539691  0.00586639  0.42054912     0.87700
O169        O  0.30964393  0.15491149  0.10090614    -0.74600
O170        O  0.31167110  0.17363470  0.22552208    -0.74600
O171        O  0.32886082  0.20778615  0.14868433    -0.74700
O172        O  0.29261141  0.12122775  0.17756154    -0.74800
O173        O  0.34006553  0.12675196  0.18313922    -0.74700
O174        O  0.37637613  0.21346007  0.15432756    -0.74700
O175        O  0.35939868  0.17972452  0.23073700    -0.74600
O176        O  0.35721198  0.16072706  0.10647272    -0.74700
Ni177      Ni  0.30901858  0.16421408  0.16294728     1.25400
Ni178      Ni  0.35994419  0.17034884  0.16883506     1.25400
C179        C  0.33333120  0.15524459  0.08296272     0.87600
C180        C  0.33566549  0.17917958  0.24881699     0.87500
C181        C  0.35862335  0.22481807  0.14598569     0.87500
C182        C  0.31030458  0.10987620  0.18626330     0.87700
O183        O  0.46706877  0.49098054  0.93938430    -0.74600
O184        O  0.48303190  0.51308964  0.06392666    -0.74600
O185        O  0.49826745  0.54507639  0.98543333    -0.74700
O186        O  0.45131008  0.45870508  0.01799916    -0.74800
O187        O  0.49487187  0.45585162  0.01559608    -0.74700
O188        O  0.54154696  0.54182388  0.98161915    -0.74700
O189        O  0.52648038  0.51015638  0.06017739    -0.74600
O190        O  0.51008915  0.48722407  0.93679935    -0.74700
Ni191      Ni  0.47334063  0.50205835  0.00181980     1.25400
Ni192      Ni  0.51974207  0.49864935  0.99836241     1.25400
C193        C  0.48640238  0.48598350  0.91733916     0.87600
C194        C  0.50718549  0.51478468  0.08276896     0.87500
C195        C  0.52753876  0.55757895  0.97738972     0.87500
C196        C  0.46556032  0.44328296  0.02337419     0.87700
O197        O  0.22080345  0.87613222  0.31156323    -0.74600
O198        O  0.17450484  0.78905333  0.34065936    -0.74600
O199        O  0.18888775  0.82263205  0.26372506    -0.74700
O200        O  0.20620412  0.84229874  0.38820785    -0.74800
O201        O  0.16302493  0.84559518  0.39433532    -0.74700
O202        O  0.14578553  0.82607677  0.26999688    -0.74700
O203        O  0.13123097  0.79212076  0.34712969    -0.74600
O204        O  0.17741091  0.87899128  0.31795980    -0.74700
Ni205      Ni  0.19914822  0.83242510  0.32574405     1.25400
Ni206      Ni  0.15279795  0.83572977  0.33251798     1.25400
C207        C  0.20665781  0.89187611  0.30958750     0.87600
C208        C  0.14540676  0.77644033  0.35005583     0.87500
C209        C  0.16482446  0.82178488  0.24614385     0.87500
C210        C  0.18723938  0.84681651  0.41192239     0.87700
O211        O  0.97386224  0.49451503  0.43515572    -0.74600
O212        O  0.97892115  0.51189178  0.56034662    -0.74600
O213        O  0.00051769  0.54728025  0.48496890    -0.74700
O214        O  0.95267149  0.45937021  0.51063725    -0.74800
O215        O  0.99679796  0.45770012  0.51461996    -0.74700
O216        O  0.04433264  0.54498462  0.48871167    -0.74700
O217        O  0.02316061  0.51035557  0.56415086    -0.74600
O218        O  0.01797672  0.49275142  0.43891601    -0.74700
Ni219      Ni  0.97492470  0.50335747  0.49759503     1.25400
Ni220      Ni  0.02208183  0.50133662  0.50175537     1.25400
C221        C  0.99536549  0.49139883  0.41619289     0.87600
C222        C  0.00161796  0.51345852  0.58303939     0.87500
C223        C  0.03032947  0.56043224  0.48152338     0.87500
C224        C  0.96701711  0.44422759  0.51814316     0.87700
O225        O  0.79838943  0.16062959  0.61733718    -0.74600
O226        O  0.81634853  0.18238687  0.74140923    -0.74600
O227        O  0.82815503  0.21468112  0.66307950    -0.74700
O228        O  0.78622631  0.12793130  0.69555659    -0.74800
O229        O  0.83105725  0.12783053  0.68915942    -0.74700
O230        O  0.87283463  0.21431551  0.65627311    -0.74700
O231        O  0.86096784  0.18187088  0.73426916    -0.74600
O232        O  0.84288208  0.15974667  0.61127199    -0.74700
Ni233      Ni  0.80566644  0.17142187  0.67963935     1.25400
Ni234      Ni  0.85352128  0.17100159  0.67249779     1.25400
C235        C  0.81808754  0.15718811  0.59372689     0.87600
C236        C  0.84116338  0.18459864  0.75852726     0.87500
C237        C  0.85721494  0.22854710  0.65294445     0.87500
C238        C  0.80188957  0.11372279  0.69867249     0.87700
O239        O  0.66960942  0.79238790  0.85365566    -0.74600
O240        O  0.71099873  0.87912545  0.82304493    -0.74600
O241        O  0.69240916  0.84600565  0.90076469    -0.74700
O242        O  0.68790027  0.82544994  0.77607716    -0.74800
O243        O  0.64161352  0.82274079  0.77173988    -0.74700
O244        O  0.64646670  0.84393138  0.89529763    -0.74700
O245        O  0.66507241  0.87704122  0.81748884    -0.74600
O246        O  0.62360226  0.79025317  0.84921602    -0.74700
Ni247      Ni  0.69189683  0.83586226  0.83856491     1.25400
Ni248      Ni  0.64261234  0.83348869  0.83324859     1.25400
C249        C  0.63980793  0.77713849  0.85743402     0.87600
C250        C  0.69493783  0.89227450  0.81410590     0.87500
C251        C  0.66957316  0.84730305  0.91887083     0.87500
C252        C  0.66401107  0.82094204  0.75329595     0.87700
C253        C  0.78652402  0.08090346  0.71461244    -0.01500
C254        C  0.80460658  0.06724199  0.72539957    -0.09500
C255        C  0.79081421  0.03682488  0.74194533    -0.18300
C256        C  0.75814357  0.01873024  0.74819546     0.04100
C257        C  0.73980942  0.03259507  0.73714491     0.18200
C258        C  0.75405904  0.06337160  0.72069389    -0.19800
C259        C  0.70735484  0.01568839  0.74269281    -0.21000
C260        C  0.69265905  0.98529278  0.75908162    -0.19600
C261        C  0.71002426  0.97099544  0.77042199     0.19600
C262        C  0.74302842  0.98746929  0.76506762     0.01800
C263        C  0.75941947  0.97187806  0.77678590    -0.14300
C264        C  0.74375528  0.94137552  0.79314572    -0.12000
C265        C  0.71123460  0.92518230  0.79847398     0.01300
C266        C  0.69452201  0.94022576  0.78696992    -0.24200
H267        H  0.82975178  0.08026475  0.72153634     0.09300
H268        H  0.80646114  0.02825275  0.74963918     0.12900
H269        H  0.73978887  0.07367658  0.71264707     0.11600
H270        H  0.69320711  0.02606347  0.73431801     0.12800
H271        H  0.66749470  0.97287929  0.76295804     0.11800
H272        H  0.78437501  0.98251179  0.77358472     0.08900
H273        H  0.75731513  0.93034848  0.80135371     0.12200
H274        H  0.66933158  0.92791804  0.79057810     0.14000
C275        C  0.94935872  0.41125525  0.53336917    -0.01500
C276        C  0.91676976  0.39565149  0.53766175    -0.09500
C277        C  0.90054203  0.36580406  0.55655490    -0.18300
C278        C  0.91652809  0.35060417  0.57224838     0.04100
C279        C  0.94948089  0.36622055  0.56665020     0.18200
C280        C  0.96540135  0.39600637  0.54718104    -0.19800
C281        C  0.96655565  0.35233544  0.58131487    -0.21000
C282        C  0.95166201  0.32323140  0.60170915    -0.19600
C283        C  0.91930229  0.30725719  0.60803148     0.19600
C284        C  0.90119412  0.32067408  0.59354397     0.01800
C285        C  0.86861767  0.30356121  0.60126627    -0.14300
C286        C  0.85466967  0.27424446  0.62175613    -0.12000
C287        C  0.87256470  0.26087543  0.63515742     0.01300
C288        C  0.90495136  0.27773803  0.62847611    -0.24200
H289        H  0.90373285  0.40678982  0.52716993     0.09300
H290        H  0.87556246  0.35545454  0.55895950     0.12900
H291        H  0.99060984  0.40774210  0.54408542     0.11600
H292        H  0.99168557  0.36415045  0.57716289     0.12800
H293        H  0.96559567  0.31315414  0.61268909     0.11800
H294        H  0.85323167  0.31208053  0.59162116     0.08900
H295        H  0.82956815  0.26168557  0.62619884     0.12200
H296        H  0.91908327  0.26770244  0.63871940     0.14000
C297        C  0.04888277  0.59337271  0.46677258    -0.01500
C298        C  0.07965924  0.60512585  0.45202956    -0.09500
C299        C  0.09635968  0.63477136  0.43302064    -0.18300
C300        C  0.08280875  0.65389144  0.42824604     0.04100
C301        C  0.05228571  0.64266147  0.44571598     0.18200
C302        C  0.03557777  0.61258093  0.46434210    -0.19800
C303        C  0.03844222  0.66134997  0.44392092    -0.21000
C304        C  0.05407771  0.69082945  0.42457740    -0.19600
C305        C  0.08367456  0.70209724  0.40569888     0.19600
C306        C  0.09840604  0.68371248  0.40687223     0.01800
C307        C  0.12789694  0.69584101  0.38607195    -0.14300
C308        C  0.14257702  0.72542903  0.36649161    -0.12000
C309        C  0.12838344  0.74386728  0.36666914     0.01300
C310        C  0.09869249  0.73179087  0.38582806    -0.24200
H311        H  0.09068875  0.59095673  0.45387973     0.09300
H312        H  0.11977967  0.64197378  0.42224860     0.12900
H313        H  0.01197050  0.60393547  0.47629430     0.11600
H314        H  0.01532825  0.65309974  0.45755805     0.12800
H315        H  0.04275764  0.70477247  0.42389794     0.11800
H316        H  0.14022523  0.68304204  0.38428039     0.08900
H317        H  0.16539042  0.73405157  0.35161957     0.12200
H318        H  0.08743300  0.74580280  0.38618792     0.14000
C319        C  0.62400175  0.74431441  0.87294609    -0.01500
C320        C  0.64118420  0.72936552  0.88158937    -0.09500
C321        C  0.62670871  0.69911804  0.89894314    -0.18300
C322        C  0.59435414  0.68275613  0.90846362     0.04100
C323        C  0.57697884  0.69790196  0.89906312     0.18200
C324        C  0.59181847  0.72824887  0.88143189    -0.19800
C325        C  0.54488964  0.68280689  0.90762747    -0.21000
C326        C  0.52954084  0.65284714  0.92531123    -0.19600
C327        C  0.54591627  0.63726757  0.93496666     0.19600
C328        C  0.57858524  0.65198013  0.92688944     0.01800
C329        C  0.59394953  0.63517892  0.93756166    -0.14300
C330        C  0.57744443  0.60489160  0.95461037    -0.12000
C331        C  0.54518487  0.59034564  0.96184443     0.01300
C332        C  0.52965770  0.60686309  0.95232862    -0.24200
H333        H  0.66608667  0.74120794  0.87536139     0.09300
H334        H  0.64155401  0.68931594  0.90473572     0.12900
H335        H  0.57825211  0.73956457  0.87500466     0.11600
H336        H  0.53153928  0.69425611  0.90056981     0.12800
H337        H  0.50464566  0.64175882  0.93142567     0.11800
H338        H  0.61866013  0.64465955  0.93289688     0.08900
H339        H  0.59005802  0.59271815  0.96178806     0.12200
H340        H  0.50468222  0.59586768  0.95773674     0.14000
C341        C  0.22387775  0.92505494  0.29595790    -0.01500
C342        C  0.25587234  0.94000431  0.28641932    -0.09500
C343        C  0.27138464  0.97034572  0.26931739    -0.18300
C344        C  0.25517143  0.98663156  0.26079658     0.04100
C345        C  0.22300220  0.97175611  0.27234277     0.18200
C346        C  0.20784570  0.94145954  0.28991492    -0.19800
C347        C  0.20584761  0.98686053  0.26535831    -0.21000
C348        C  0.21979709  0.01633678  0.24629179    -0.19600
C349        C  0.25122592  0.03139748  0.23374446     0.19600
C350        C  0.26949505  0.01691641  0.24087955     0.01800
C351        C  0.30115143  0.03332211  0.22737642    -0.14300
C352        C  0.31417336  0.06309332  0.20856718    -0.12000
C353        C  0.29608014  0.07732822  0.20225329     0.01300
C354        C  0.26451513  0.06109466  0.21441437    -0.24200
H355        H  0.26891235  0.92799452  0.29133334     0.09300
H356        H  0.29591933  0.98018525  0.26250286     0.12900
H357        H  0.18314033  0.93027892  0.29758898     0.11600
H358        H  0.18135760  0.97566201  0.27430977     0.12800
H359        H  0.20583773  0.02737152  0.24110387     0.11800
H360        H  0.31651921  0.02391270  0.23114653     0.08900
H361        H  0.33863333  0.07514834  0.19940435     0.12200
H362        H  0.25029075  0.07191942  0.20990607     0.14000
C363        C  0.37273394  0.25770777  0.13148041    -0.01500
C364        C  0.35439647  0.26855494  0.11129115    -0.09500
C365        C  0.36806496  0.29876296  0.09386274    -0.18300
C366        C  0.40073338  0.31921725  0.09617858     0.04100
C367        C  0.41906041  0.30829284  0.11783293     0.18200
C368        C  0.40500349  0.27792339  0.13519811    -0.19800
C369        C  0.45144415  0.32750666  0.12138054    -0.21000
C370        C  0.46625034  0.35723275  0.10302361    -0.19600
C371        C  0.44901979  0.36851780  0.08084049     0.19600
C372        C  0.41597323  0.34991484  0.07744340     0.01800
C373        C  0.39979246  0.36289660  0.05531828    -0.14300
C374        C  0.41583935  0.39304982  0.03748244    -0.12000
C375        C  0.44842301  0.41097923  0.04052335     0.01300
C376        C  0.46479896  0.39848166  0.06216657    -0.24200
H377        H  0.32939589  0.25335241  0.10786311     0.09300
H378        H  0.35248419  0.30520798  0.07823507     0.12900
H379        H  0.41939587  0.26983088  0.15100620     0.11600
H380        H  0.46548811  0.31935217  0.13805662     0.12800
H381        H  0.49141836  0.37145555  0.10600729     0.11800
H382        H  0.37477280  0.35046065  0.05146106     0.08900
H383        H  0.40268743  0.40232470  0.02108364     0.12200
H384        H  0.48999411  0.41241536  0.06534804     0.14000
C385        C  0.66155219  0.81167678  0.46786317    -0.01500
C386        C  0.63291412  0.79804710  0.49030943    -0.09500
C387        C  0.63173210  0.79626185  0.53681130    -0.18300
C388        C  0.65936391  0.80789094  0.56252460     0.04100
C389        C  0.68822936  0.82012540  0.53937625     0.18200
C390        C  0.68909146  0.82217514  0.49256404    -0.19800
C391        C  0.71616089  0.83096952  0.56312479    -0.21000
C392        C  0.71624512  0.83098917  0.60950689    -0.19600
C393        C  0.68844797  0.82054140  0.63333820     0.19600
C394        C  0.65952729  0.80854234  0.61024016     0.01800
C395        C  0.63221769  0.79878097  0.63592111    -0.14300
C396        C  0.63377494  0.80203015  0.68225374    -0.12000
C397        C  0.66240075  0.81457567  0.70477645     0.01300
C398        C  0.68956441  0.82302521  0.68014410    -0.24200
H399        H  0.61131460  0.78975447  0.47189360     0.09300
H400        H  0.60885518  0.78598200  0.55158365     0.12900
H401        H  0.71131204  0.83239874  0.47531392     0.11600
H402        H  0.73819416  0.83996519  0.54569253     0.12800
H403        H  0.73834565  0.84000600  0.62686253     0.11800
H404        H  0.60937533  0.78935513  0.62118302     0.08900
H405        H  0.61239763  0.79508579  0.70052042     0.12200
H406        H  0.71186115  0.83290508  0.69722523     0.14000
C407        C  0.66247747  0.84499549  0.20493187    -0.01500
C408        C  0.63458514  0.83338948  0.18079870    -0.09500
C409        C  0.63490576  0.83580036  0.13434033    -0.18300
C410        C  0.66331894  0.84929830  0.11028576     0.04100
C411        C  0.69152729  0.86071312  0.13497816     0.18200
C412        C  0.69090874  0.85919285  0.18181724    -0.19800
C413        C  0.72011030  0.87256400  0.11272884    -0.21000
C414        C  0.72123541  0.87249105  0.06636725    -0.19600
C415        C  0.69393299  0.86159352  0.04103639     0.19600
C416        C  0.66470373  0.85082044  0.06263532     0.01800
C417        C  0.63813579  0.84184684  0.03554161    -0.14300
C418        C  0.64025257  0.84204782  0.98910447    -0.12000
C419        C  0.66875598  0.85090030  0.96791750     0.01300
C420        C  0.69562694  0.86106726  0.99418165    -0.24200
H421        H  0.61232764  0.82210941  0.19793373     0.09300
H422        H  0.61247355  0.82588411  0.11813481     0.12900
H423        H  0.71257264  0.86766680  0.20020319     0.11600
H424        H  0.74168967  0.88117359  0.13133252     0.12800
H425        H  0.74364720  0.88103423  0.05020140     0.11800
H426        H  0.61537287  0.83459217  0.04922728     0.08900
H427        H  0.61912694  0.83425764  0.96971406     0.12200
H428        H  0.71787741  0.86835770  0.97816513     0.14000
C429        C  0.70272897  0.77851250  0.30057472    -0.01500
C430        C  0.68487477  0.74646970  0.29151442    -0.09500
C431        C  0.69869719  0.73023531  0.27353797    -0.18300
C432        C  0.73099829  0.74570869  0.26365132     0.04100
C433        C  0.74907538  0.77812771  0.27372254     0.18200
C434        C  0.73492749  0.79405207  0.29214709    -0.19800
C435        C  0.78112350  0.79465535  0.26473933    -0.21000
C436        C  0.79568786  0.77972477  0.24552773    -0.19600
C437        C  0.77855636  0.74790646  0.23483982     0.19600
C438        C  0.74599079  0.73034336  0.24384788     0.01800
C439        C  0.72992512  0.69822671  0.23247531    -0.14300
C440        C  0.74560616  0.68417053  0.21339515    -0.12000
C441        C  0.77769407  0.70158414  0.20472706     0.01300
C442        C  0.79394590  0.73351867  0.21536788    -0.24200
H443        H  0.65996584  0.73389327  0.29776501     0.09300
H444        H  0.68336230  0.70568828  0.26728891     0.12900
H445        H  0.74902716  0.81889066  0.29889445     0.11600
H446        H  0.79500855  0.81936911  0.27239519     0.12800
H447        H  0.82053723  0.79319613  0.23886724     0.11800
H448        H  0.70527589  0.68324010  0.23811043     0.08900
H449        H  0.73251187  0.65943808  0.20569397     0.12200
H450        H  0.81885904  0.74722239  0.20922463     0.14000
C451        C  0.55356217  0.96169504  0.46621534    -0.01500
C452        C  0.58559559  0.97821257  0.45703166    -0.09500
C453        C  0.60029512  0.96305610  0.43820167    -0.18300
C454        C  0.58319022  0.93077992  0.42767090     0.04100
C455        C  0.55083681  0.91411430  0.43805122     0.18200
C456        C  0.53649075  0.92957190  0.45708871    -0.19800
C457        C  0.53281098  0.88208791  0.42917383    -0.21000
C458        C  0.54631780  0.86599848  0.41050384    -0.19600
C459        C  0.57808271  0.88164664  0.39978390     0.19600
C460        C  0.59694060  0.91433882  0.40759634     0.01800
C461        C  0.62870945  0.92905165  0.39502328    -0.14300
C462        C  0.64144784  0.91177942  0.37731861    -0.12000
C463        C  0.62299830  0.87941200  0.37122460     0.01300
C464        C  0.59117945  0.86461285  0.38178684    -0.24200
H465        H  0.59931800  0.00302927  0.46393107     0.09300
H466        H  0.62500487  0.97726391  0.43222378     0.12900
H467        H  0.51164827  0.91648158  0.46400065     0.11600
H468        H  0.50810441  0.86933132  0.43700307     0.12800
H469        H  0.53181574  0.84112218  0.40445768     0.11800
H470        H  0.64439750  0.95380840  0.39869888     0.08900
H471        H  0.66604563  0.92385018  0.36894177     0.12200
H472        H  0.57664326  0.83958291  0.37705864     0.14000
C473        C  0.00249588  0.51782140  0.63188585    -0.01500
C474        C  0.03059753  0.52893454  0.65526052    -0.09500
C475        C  0.03131891  0.53084299  0.70170987    -0.18300
C476        C  0.00362806  0.52101341  0.72651463     0.04100
C477        C  0.97512746  0.50974281  0.70259236     0.18200
C478        C  0.97491010  0.50884903  0.65574377    -0.19800
C479        C  0.94687885  0.49844601  0.72557585    -0.21000
C480        C  0.94615878  0.49705501  0.77190139    -0.19600
C481        C  0.97376573  0.50774461  0.79639925     0.19600
C482        C  0.00302750  0.52086780  0.77413872     0.01800
C483        C  0.03035223  0.53288177  0.80056777    -0.14300
C484        C  0.02853822  0.53052839  0.84693783    -0.12000
C485        C  0.99956029  0.51589871  0.86844877     0.01300
C486        C  0.97226112  0.50493318  0.84307279    -0.24200
H487        H  0.05218636  0.53594182  0.63753229     0.09300
H488        H  0.05378166  0.53917245  0.71720302     0.12900
H489        H  0.95296369  0.49978793  0.63790992     0.11600
H490        H  0.92507184  0.48982311  0.70755852     0.12800
H491        H  0.92382069  0.48738190  0.78867995     0.11800
H492        H  0.05347570  0.54416762  0.78647052     0.08900
H493        H  0.04994618  0.53923959  0.86597785     0.12200
H494        H  0.94978341  0.49397446  0.85969463     0.14000
C495        C  0.99611758  0.48117684  0.13049944    -0.01500
C496        C  0.96727708  0.46806831  0.15229232    -0.09500
C497        C  0.96570893  0.46767304  0.19880699    -0.18300
C498        C  0.99314129  0.48017238  0.22512322     0.04100
C499        C  0.02219994  0.49170165  0.20274257     0.18200
C500        C  0.02346237  0.49249526  0.15591018    -0.19800
C501        C  0.04989033  0.50291437  0.22721926    -0.21000
C502        C  0.04944694  0.50336868  0.27357830    -0.19600
C503        C  0.02140202  0.49333687  0.29659141     0.19600
C504        C  0.99285290  0.48187315  0.27271181     0.01800
C505        C  0.96542926  0.47346078  0.29746753    -0.14300
C506        C  0.96635828  0.47629169  0.34385467    -0.12000
C507        C  0.99442129  0.48706964  0.36726588     0.01300
C508        C  0.02184480  0.49532918  0.34339241    -0.24200
H509        H  0.94584774  0.45923632  0.13327236     0.09300
H510        H  0.94270271  0.45755711  0.21311986     0.12900
H511        H  0.04583995  0.50238066  0.13914839     0.11600
H512        H  0.07207939  0.51147914  0.21037828     0.12800
H513        H  0.07130355  0.51221799  0.29154352     0.11800
H514        H  0.94300602  0.46530676  0.28192898     0.08900
H515        H  0.94491288  0.47001924  0.36151679     0.12200
H516        H  0.04380288  0.50430177  0.36116875     0.14000
C517        C  0.87437181  0.61921405  0.12389742    -0.01500
C518        C  0.90683835  0.63683361  0.11862138    -0.09500
C519        C  0.92348894  0.62338469  0.10090935    -0.18300
C520        C  0.90808381  0.59167452  0.08745538     0.04100
C521        C  0.87508540  0.57396349  0.09253327     0.18200
C522        C  0.85868085  0.58772525  0.11082692    -0.19800
C523        C  0.85857536  0.54263409  0.07910897    -0.21000
C524        C  0.87414565  0.52833237  0.06104891    -0.19600
C525        C  0.90664371  0.54494233  0.05619561     0.19600
C526        C  0.92414322  0.57687590  0.06922005     0.01800
C527        C  0.95695144  0.59242991  0.06381121    -0.14300
C528        C  0.97170115  0.57678028  0.04693612    -0.12000
C529        C  0.95437996  0.54520362  0.03467653     0.01300
C530        C  0.92177387  0.52957234  0.03896087    -0.24200
H531        H  0.91953659  0.66126399  0.12815256     0.09300
H532        H  0.94836083  0.63852973  0.09792538     0.12900
H533        H  0.83350024  0.57394873  0.11416038     0.11600
H534        H  0.83340990  0.52905501  0.08266355     0.12800
H535        H  0.86067418  0.50399797  0.05113598     0.11800
H536        H  0.97196585  0.61657244  0.07284165     0.08900
H537        H  0.99691797  0.58945209  0.04409300     0.12200
H538        H  0.90806973  0.50511679  0.02970408     0.14000
C539        C  0.33370567  0.15055673  0.03419528    -0.01500
C540        C  0.36188487  0.15887079  0.01249932    -0.09500
C541        C  0.36326423  0.15783323  0.96607813    -0.18300
C542        C  0.33629676  0.14832507  0.93960269     0.04100
C543        C  0.30740982  0.13814067  0.96187505     0.18200
C544        C  0.30640758  0.13955779  0.00864285    -0.19800
C545        C  0.27979116  0.12722391  0.93730046    -0.21000
C546        C  0.28031300  0.12688142  0.89093946    -0.19600
C547        C  0.30855797  0.13809835  0.86798483     0.19600
C548        C  0.33701109  0.14906474  0.89193700     0.01800
C549        C  0.36504372  0.16141807  0.86712992    -0.14300
C550        C  0.36484365  0.16350828  0.82070536    -0.12000
C551        C  0.33677178  0.15268668  0.79738068     0.01300
C552        C  0.30863562  0.13940213  0.82116124    -0.24200
H553        H  0.38328351  0.16715175  0.03140052     0.09300
H554        H  0.38584321  0.16483050  0.95195052     0.12900
H555        H  0.28436823  0.13258404  0.02511188     0.11600
H556        H  0.25764542  0.11914423  0.95405291     0.12800
H557        H  0.25855208  0.11852816  0.87289558     0.11800
H558        H  0.38762134  0.17060542  0.88264323     0.08900
H559        H  0.38684540  0.17390897  0.80293559     0.12200
H560        H  0.28685030  0.13144259  0.80329731     0.14000
C561        C  0.33442961  0.18412102  0.53439337    -0.01500
C562        C  0.36228711  0.20447136  0.51235483    -0.09500
C563        C  0.36327410  0.20672409  0.46588599    -0.18300
C564        C  0.33622124  0.18860321  0.43977364     0.04100
C565        C  0.30761987  0.16948688  0.46246260     0.18200
C566        C  0.30702145  0.16725122  0.50921328    -0.19800
C567        C  0.27988754  0.15214838  0.43832288    -0.21000
C568        C  0.28003474  0.15273894  0.39196037    -0.19600
C569        C  0.30802219  0.17013049  0.36856085     0.19600
C570        C  0.33657405  0.18828841  0.39208347     0.01800
C571        C  0.36436238  0.20430102  0.36684178    -0.14300
C572        C  0.36384998  0.20175430  0.32041644    -0.12000
C573        C  0.33567918  0.18389323  0.29749233     0.01300
C574        C  0.30776160  0.16862272  0.32172238    -0.24200
H575        H  0.38373523  0.21805049  0.53100293     0.09300
H576        H  0.38561882  0.22267868  0.45141083     0.12900
H577        H  0.28520371  0.15184804  0.52597186     0.11600
H578        H  0.25795078  0.13777479  0.45542056     0.12800
H579        H  0.25820060  0.13882654  0.37426364     0.11800
H580        H  0.38700094  0.21816824  0.38202641     0.08900
H581        H  0.38570242  0.21366575  0.30232203     0.12200
H582        H  0.28591727  0.15430165  0.30419715     0.14000
C583        C  0.37794413  0.11962282  0.63133983    -0.01500
C584        C  0.36100876  0.08727071  0.62414794    -0.09500
C585        C  0.37564033  0.07150482  0.60710571    -0.18300
C586        C  0.40781646  0.08779017  0.59622142     0.04100
C587        C  0.42489339  0.12053498  0.60422410     0.18200
C588        C  0.41000546  0.13593576  0.62192135    -0.19800
C589        C  0.45667882  0.13795360  0.59378833    -0.21000
C590        C  0.47197849  0.12360898  0.57512165    -0.19600
C591        C  0.45593365  0.09144818  0.56676453     0.19600
C592        C  0.42365401  0.07297002  0.57734592     0.01800
C593        C  0.40874980  0.04052913  0.56854205    -0.14300
C594        C  0.42529449  0.02707008  0.55052299    -0.12000
C595        C  0.45715267  0.04538507  0.54049529     0.01300
C596        C  0.47219924  0.07763710  0.54831909    -0.24200
H597        H  0.33622016  0.07408537  0.63118760     0.09300
H598        H  0.36101505  0.04668202  0.60222330     0.12900
H599        H  0.42340619  0.16099770  0.62720492     0.11600
H600        H  0.46977522  0.16293720  0.59979868     0.12800
H601        H  0.49658659  0.13778821  0.56724822     0.11800
H602        H  0.38442652  0.02484323  0.57562789     0.08900
H603        H  0.41307306  0.00204305  0.54500802     0.12200
H604        H  0.49686998  0.09204106  0.54092310     0.14000
C605        C  0.04188117  0.45200609  0.95984418    -0.01500
C606        C  0.07414329  0.46930111  0.95233535    -0.09500
C607        C  0.09000429  0.45550271  0.93335966    -0.18300
C608        C  0.07414079  0.42355054  0.92128314     0.04100
C609        C  0.04142246  0.40590271  0.92908172     0.18200
C610        C  0.02560898  0.42023310  0.94794100    -0.19800
C611        C  0.02477157  0.37404814  0.91821611    -0.21000
C612        C  0.04005277  0.35915881  0.90078790    -0.19600
C613        C  0.07232327  0.37582615  0.89319689     0.19600
C614        C  0.08969384  0.40842044  0.90250051     0.01800
C615        C  0.12199365  0.42444209  0.89298288    -0.14300
C616        C  0.13661952  0.40864982  0.87663265    -0.12000
C617        C  0.11979629  0.37633289  0.86899238     0.01300
C618        C  0.08745888  0.36007644  0.87683443    -0.24200
H619        H  0.08735443  0.49392503  0.96069153     0.09300
H620        H  0.11476050  0.47056534  0.92893623     0.12900
H621        H  0.00060211  0.40661163  0.95326651     0.11600
H622        H  0.99980342  0.36043520  0.92382615     0.12800
H623        H  0.02654953  0.33437870  0.89342891     0.11800
H624        H  0.13678602  0.44921667  0.89793886     0.08900
H625        H  0.16154130  0.42195883  0.87062624     0.12200
H626        H  0.07409148  0.33512053  0.87065528     0.14000
C627        C  0.21579501  0.29217682  0.79217923    -0.01500
C628        C  0.24847867  0.30794102  0.79346614    -0.09500
C629        C  0.26498532  0.29449182  0.77519406    -0.18300
C630        C  0.24921043  0.26478099  0.75438904     0.04100
C631        C  0.21604047  0.24921674  0.75233236     0.18200
C632        C  0.19974817  0.26280427  0.77150639    -0.19800
C633        C  0.19927021  0.22021418  0.73099022    -0.21000
C634        C  0.21467566  0.20592575  0.71235464    -0.19600
C635        C  0.24721590  0.22015299  0.71493608     0.19600
C636        C  0.26504012  0.24988611  0.73570880     0.01800
C637        C  0.29785120  0.26310315  0.73746343    -0.14300
C638        C  0.31218390  0.24716913  0.72017864    -0.12000
C639        C  0.29443047  0.21759231  0.70060680     0.01300
C640        C  0.26196450  0.20444650  0.69758220    -0.24200
H641        H  0.26141626  0.33082802  0.80880313     0.09300
H642        H  0.29005910  0.30806944  0.77762485     0.12900
H643        H  0.17446327  0.25072421  0.76945844     0.11600
H644        H  0.17401173  0.20840123  0.72888712     0.12800
H645        H  0.20098153  0.18335103  0.69635019     0.11800
H646        H  0.31308207  0.28545598  0.75265412     0.08900
H647        H  0.33730248  0.25781761  0.72317718     0.12200
H648        H  0.24799101  0.18161115  0.68238334     0.14000
C649        C  0.48238938  0.47995514  0.86844494    -0.01500
C650        C  0.50015985  0.46926387  0.84604234    -0.09500
C651        C  0.49933859  0.46665389  0.79956739    -0.18300
C652        C  0.48093052  0.47515667  0.77348827     0.04100
C653        C  0.46246226  0.48545310  0.79630316     0.18200
C654        C  0.46294991  0.48725862  0.84326773    -0.19800
C655        C  0.44448504  0.49498492  0.77204344    -0.21000
C656        C  0.44543827  0.49577969  0.72564779    -0.19600
C657        C  0.46385529  0.48640658  0.70221019     0.19600
C658        C  0.48106689  0.47495174  0.72567291     0.01800
C659        C  0.49808831  0.46438051  0.70016090    -0.14300
C660        C  0.49917881  0.46657761  0.65359030    -0.12000
C661        C  0.48374157  0.47968361  0.63090224     0.01300
C662        C  0.46567888  0.48905664  0.65541943    -0.24200
H663        H  0.51534336  0.46338336  0.86451396     0.09300
H664        H  0.51416128  0.45883989  0.78499823     0.12900
H665        H  0.44925655  0.49578539  0.86007689     0.11600
H666        H  0.43024954  0.50274529  0.78910988     0.12800
H667        H  0.43192163  0.50413485  0.70796791     0.11800
H668        H  0.51100176  0.45451878  0.71521029     0.08900
H669        H  0.51320537  0.45909075  0.63535601     0.12200
H670        H  0.45328963  0.49881567  0.63802093     0.14000
C671        C  0.51672323  0.51885704  0.36855821    -0.01500
C672        C  0.50079163  0.53216187  0.34776680    -0.09500
C673        C  0.50127910  0.53540248  0.30146307    -0.18300
C674        C  0.51816460  0.52570665  0.27413744     0.04100
C675        C  0.53633965  0.51450690  0.29559299     0.18200
C676        C  0.53503832  0.51065412  0.34233126    -0.19800
C677        C  0.55506063  0.50652896  0.27011717    -0.21000
C678        C  0.55496250  0.50799553  0.22372031    -0.19600
C679        C  0.53550805  0.51666219  0.20153477     0.19600
C680        C  0.51703241  0.52594527  0.22638934     0.01800
C681        C  0.49708652  0.53356782  0.20236190    -0.14300
C682        C  0.49460312  0.53075693  0.15589490    -0.12000
C683        C  0.51229385  0.52089704  0.13155162     0.01300
C684        C  0.53341950  0.51479465  0.15465567    -0.24200
H685        H  0.48677176  0.53900801  0.36732540     0.09300
H686        H  0.48798124  0.54536020  0.28804988     0.12900
H687        H  0.54800157  0.50096587  0.35826214     0.11600
H688        H  0.56949787  0.49860059  0.28615531     0.12800
H689        H  0.56934168  0.50115855  0.20501521     0.11800
H690        H  0.48217082  0.54062332  0.21860753     0.08900
H691        H  0.47824928  0.53579153  0.13901895     0.12200
H692        H  0.54720901  0.50703809  0.13632515     0.14000
C693        C  0.84607237  0.18792987  0.80733048    -0.01500
C694        C  0.86170407  0.17429951  0.82810952    -0.09500
C695        C  0.86316476  0.17321037  0.87445375    -0.18300
C696        C  0.84923515  0.18615704  0.90179507     0.04100
C697        C  0.83537213  0.20199951  0.88061095     0.18200
C698        C  0.83337125  0.20223564  0.83375000    -0.19800
C699        C  0.82319236  0.21704672  0.90638443    -0.21000
C700        C  0.82396003  0.21619341  0.95277353    -0.19600
C701        C  0.83597017  0.19938822  0.97453563     0.19600
C702        C  0.84842778  0.18378446  0.94932099     0.01800
C703        C  0.85852601  0.16556068  0.97267927    -0.14300
C704        C  0.85643043  0.16306126  0.01906229    -0.12000
C705        C  0.84476737  0.17897746  0.04388088     0.01300
C706        C  0.83484005  0.19738024  0.02137416    -0.24200
H707        H  0.87185695  0.16323556  0.80840848     0.09300
H708        H  0.87537253  0.16208510  0.88782398     0.12900
H709        H  0.82168131  0.21327755  0.81784209     0.11600
H710        H  0.81296145  0.22952961  0.89056036     0.12800
H711        H  0.81435125  0.22809505  0.97175059     0.11800
H712        H  0.86727898  0.15218139  0.95602303     0.08900
H713        H  0.86390601  0.14842995  0.03559778     0.12200
H714        H  0.82511890  0.20924408  0.04022193     0.14000
C715        C  0.81315071  0.15145416  0.54520539    -0.01500
C716        C  0.82570633  0.13532810  0.52298621    -0.09500
C717        C  0.82431738  0.13263433  0.47657856    -0.18300
C718        C  0.81093582  0.14680208  0.45058160     0.04100
C719        C  0.79821502  0.16318755  0.47332995     0.18200
C720        C  0.79875661  0.16471802  0.52023174    -0.19800
C721        C  0.78618148  0.17900349  0.44908792    -0.21000
C722        C  0.78752851  0.17986444  0.40272625    -0.19600
C723        C  0.80009247  0.16415717  0.37937894     0.19600
C724        C  0.81094993  0.14646089  0.40287555     0.01800
C725        C  0.82176307  0.12959390  0.37753686    -0.14300
C726        C  0.82338945  0.13169113  0.33104573    -0.12000
C727        C  0.81453808  0.15075715  0.30823934     0.01300
C728        C  0.80234929  0.16646982  0.33263310    -0.24200
H729        H  0.83710647  0.12506969  0.54163433     0.09300
H730        H  0.83500390  0.12034013  0.46200066     0.12900
H731        H  0.78954663  0.17777916  0.53719424     0.11600
H732        H  0.77650228  0.19158828  0.46614316     0.12800
H733        H  0.77885641  0.19309118  0.38500634     0.11800
H734        H  0.82919133  0.11461936  0.39264808     0.08900
H735        H  0.83254002  0.11902013  0.31297276     0.12200
H736        H  0.79484423  0.18080030  0.31521695     0.14000
C737        C  0.15163025  0.33491098  0.70111612    -0.01500
C738        C  0.16372566  0.36304636  0.67759669    -0.09500
C739        C  0.16235060  0.36320869  0.63103373    -0.18300
C740        C  0.14939301  0.33504160  0.60622252     0.04100
C741        C  0.13724221  0.30654088  0.63031875     0.18200
C742        C  0.13786766  0.30669059  0.67724833    -0.19800
C743        C  0.12540606  0.27811309  0.60743392    -0.21000
C744        C  0.12586896  0.27736130  0.56106196    -0.19600
C745        C  0.13750839  0.30494546  0.53629478     0.19600
C746        C  0.14882940  0.33414095  0.55846971     0.01800
C747        C  0.15928806  0.36114011  0.53181088    -0.14300
C748        C  0.15939326  0.35932125  0.48531465    -0.12000
C749        C  0.14940250  0.33069575  0.46361574     0.01300
C750        C  0.13822935  0.30352879  0.48941717    -0.24200
H751        H  0.17464815  0.38513886  0.69533055     0.09300
H752        H  0.17246835  0.38582594  0.61543780     0.12900
H753        H  0.12900886  0.28483109  0.69518116     0.11600
H754        H  0.11626084  0.25631711  0.62556575     0.12800
H755        H  0.11706125  0.25500808  0.54443700     0.11800
H756        H  0.16759098  0.38405241  0.54584765     0.08900
H757        H  0.16831095  0.38071865  0.46628894     0.12200
H758        H  0.13032384  0.28123343  0.47300296     0.14000
C759        C  0.18473284  0.33224566  0.96382209    -0.01500
C760        C  0.17811066  0.30498541  0.98682161    -0.09500
C761        C  0.18103970  0.30521369  0.03334271    -0.18300
C762        C  0.18971728  0.33267799  0.05852700     0.04100
C763        C  0.19651211  0.36026338  0.03476694     0.18200
C764        C  0.19465423  0.35994588  0.98796217    -0.19800
C765        C  0.20405069  0.38779036  0.05788002    -0.21000
C766        C  0.20400041  0.38834133  0.10423364    -0.19600
C767        C  0.19701254  0.36154211  0.12873652     0.19600
C768        C  0.19065604  0.33354865  0.10633925     0.01800
C769        C  0.18481515  0.30753503  0.13288571    -0.14300
C770        C  0.18354954  0.30875499  0.17943822    -0.12000
C771        C  0.18802903  0.33583586  0.20125409     0.01300
C772        C  0.19552785  0.36239502  0.17556552    -0.24200
H773        H  0.17047764  0.28335081  0.96872957     0.09300
H774        H  0.17536509  0.28330839  0.04872943     0.12900
H775        H  0.19941512  0.38103604  0.97034716     0.11600
H776        H  0.20921682  0.40887260  0.03995802     0.12800
H777        H  0.20910906  0.40982467  0.12105046     0.11800
H778        H  0.18073182  0.28577224  0.11862641     0.08900
H779        H  0.17800224  0.28794894  0.19833015     0.12200
H780        H  0.19944634  0.38363930  0.19195312     0.14000
C781        C  0.92241279  0.21087629  0.20639102    -0.01500
C782        C  0.93905553  0.19479352  0.20695941    -0.09500
C783        C  0.96994368  0.20933672  0.22183118    -0.18300
C784        C  0.98534281  0.24066757  0.23701265     0.04100
C785        C  0.96866347  0.25717050  0.23525773     0.18200
C786        C  0.93760949  0.24227247  0.21996164    -0.19800
C787        C  0.98289700  0.28832536  0.24943846    -0.21000
C788        C  0.01330705  0.30344132  0.26579823    -0.19600
C789        C  0.03021823  0.28774286  0.26864523     0.19600
C790        C  0.01650354  0.25611366  0.25427244     0.01800
C791        C  0.03446565  0.24124166  0.25835656    -0.14300
C792        C  0.06458318  0.25702321  0.27609417    -0.12000
C793        C  0.07807242  0.28820480  0.29012009     0.01300
C794        C  0.06076004  0.30348125  0.28604497    -0.24200
H795        H  0.92803717  0.17059824  0.19639173     0.09300
H796        H  0.98096627  0.19527165  0.22136842     0.12900
H797        H  0.92504950  0.25503036  0.21958084     0.11600
H798        H  0.97034546  0.30106755  0.24810648     0.12800
H799        H  0.02358645  0.32753536  0.27665583     0.11800
H800        H  0.02592573  0.21736933  0.24837186     0.08900
H801        H  0.07750756  0.24470363  0.27837623     0.12200
H802        H  0.07096634  0.32761592  0.29672153     0.14000
C803        C  0.25603228  0.37495122  0.37675815    -0.01500
C804        C  0.27133885  0.35776064  0.38176894    -0.09500
C805        C  0.30081469  0.37108110  0.40136600    -0.18300
C806        C  0.31613660  0.40230845  0.41680075     0.04100
C807        C  0.30033348  0.41957451  0.41229399     0.18200
C808        C  0.27060642  0.40583598  0.39243344    -0.19800
C809        C  0.31442383  0.45054795  0.42721019    -0.21000
C810        C  0.34438693  0.46515715  0.44508191    -0.19600
C811        C  0.36089333  0.44907959  0.44872225     0.19600
C812        C  0.34681024  0.41722556  0.43555433     0.01800
C813        C  0.36435494  0.40195203  0.44083578    -0.14300
C814        C  0.39508992  0.41809634  0.45632086    -0.12000
C815        C  0.40927789  0.44982622  0.46745031     0.01300
C816        C  0.39173986  0.46495214  0.46452676    -0.24200
H817        H  0.26049339  0.33374822  0.37039925     0.09300
H818        H  0.31100142  0.35631114  0.40360230     0.12900
H819        H  0.25873423  0.41918682  0.38945636     0.11600
H820        H  0.30240750  0.46375224  0.42429952     0.12800
H821        H  0.35491256  0.48936741  0.45549413     0.11800
H822        H  0.35523943  0.37767849  0.43268795     0.08900
H823        H  0.40795432  0.40572892  0.45883485     0.12200
H824        H  0.40234475  0.48944577  0.47349096     0.14000
C825        C  0.52327964  0.00283394  0.63543834    -0.01500
C826        C  0.54309578  0.03076785  0.65806618    -0.09500
C827        C  0.54572979  0.03145989  0.70462215    -0.18300
C828        C  0.52856001  0.00402066  0.73030013     0.04100
C829        C  0.51002021  0.97544805  0.70696361     0.18200
C830        C  0.50743125  0.97513836  0.66017844    -0.19800
C831        C  0.49336518  0.94741052  0.73052358    -0.21000
C832        C  0.49358637  0.94722819  0.77689801    -0.19600
C833        C  0.51008674  0.97513435  0.80098461     0.19600
C834        C  0.52820042  0.00394665  0.77814386     0.01800
C835        C  0.54385860  0.03150070  0.80422612    -0.14300
C836        C  0.54004668  0.03061936  0.85057349    -0.12000
C837        C  0.52139338  0.00227044  0.87265818     0.01300
C838        C  0.50739594  0.97450368  0.84776431    -0.24200
H839        H  0.55588270  0.05248338  0.63983806     0.09300
H840        H  0.56100646  0.05390514  0.71957849     0.12900
H841        H  0.49244984  0.95328348  0.64304952     0.11600
H842        H  0.47951738  0.92549350  0.71295313     0.12800
H843        H  0.47988356  0.92517332  0.79406089     0.11800
H844        H  0.55825662  0.05423063  0.78965496     0.08900
H845        H  0.55138181  0.05233445  0.86921795     0.12200
H846        H  0.49279584  0.95247339  0.86458964     0.14000
C847        C  0.49053084  0.00582076  0.37156732    -0.01500
C848        C  0.50463003  0.03387365  0.34750600    -0.09500
C849        C  0.50186472  0.03390189  0.30104506    -0.18300
C850        C  0.48533911  0.00564583  0.27670436     0.04100
C851        C  0.47130364  0.97721819  0.30120689     0.18200
C852        C  0.47350731  0.97758502  0.34809323    -0.19800
C853        C  0.45587544  0.94852968  0.27868504    -0.21000
C854        C  0.45483799  0.94738209  0.23228367    -0.19600
C855        C  0.46849275  0.97490402  0.20711540     0.19600
C856        C  0.48309637  0.00446208  0.22896892     0.01800
C857        C  0.49508581  0.03147362  0.20197410    -0.14300
C858        C  0.49408252  0.02927766  0.15542637    -0.12000
C859        C  0.48143733  0.00019531  0.13399994     0.01300
C860        C  0.46817302  0.97304438  0.16016829    -0.24200
H861        H  0.51806585  0.05599849  0.36470098     0.09300
H862        H  0.51368979  0.05642188  0.28500584     0.12900
H863        H  0.46295048  0.95568287  0.36622748     0.11600
H864        H  0.44515086  0.92675270  0.29708886     0.12800
H865        H  0.44338126  0.92475702  0.21594342     0.11800
H866        H  0.50558121  0.05470467  0.21586558     0.08900
H867        H  0.50446160  0.05064024  0.13611135     0.12200
H868        H  0.45801245  0.95039448  0.14396383     0.14000
C869        C  0.58840575  0.04343702  0.04432544    -0.01500
C870        C  0.60434051  0.07600188  0.04929028    -0.09500
C871        C  0.63400633  0.09177092  0.06826438    -0.18300
C872        C  0.64895734  0.07543401  0.08311574     0.04100
C873        C  0.63323240  0.04249718  0.07671115     0.18200
C874        C  0.60313775  0.02681440  0.05780937    -0.19800
C875        C  0.64765003  0.02545909  0.08924812    -0.21000
C876        C  0.67747781  0.04048477  0.10777130    -0.19600
C877        C  0.69331860  0.07281107  0.11519225     0.19600
C878        C  0.67904902  0.09066886  0.10366769     0.01800
C879        C  0.69544506  0.12300068  0.11349372    -0.14300
C880        C  0.72518643  0.13717642  0.13233747    -0.12000
C881        C  0.73974262  0.11979074  0.14202678     0.01300
C882        C  0.72346963  0.08747202  0.13384635    -0.24200
H883        H  0.59369945  0.08953294  0.03892658     0.09300
H884        H  0.64462066  0.11679550  0.07054189     0.12900
H885        H  0.59112107  0.00162174  0.05392905     0.11600
H886        H  0.63588794  0.00036905  0.08433721     0.12800
H887        H  0.68815197  0.02668662  0.11662132     0.11800
H888        H  0.68597585  0.13806937  0.10714729     0.08900
H889        H  0.73710057  0.16213371  0.13842738     0.12200
H890        H  0.73440691  0.07371291  0.14146450     0.14000
C891        C  0.19253362  0.85218263  0.46057139    -0.01500
C892        C  0.21059007  0.84207135  0.48337022    -0.09500
C893        C  0.21228123  0.84309894  0.52991315    -0.18300
C894        C  0.19591859  0.85444841  0.55530225     0.04100
C895        C  0.17965371  0.86695048  0.53184511     0.18200
C896        C  0.17786767  0.86545337  0.48500622    -0.19800
C897        C  0.16447109  0.88000627  0.55532678    -0.21000
C898        C  0.16397966  0.87976000  0.60172894    -0.19600
C899        C  0.17801263  0.86577968  0.62579929     0.19600
C900        C  0.19436074  0.85306772  0.60295957     0.01800
C901        C  0.20710624  0.83817303  0.62870863    -0.14300
C902        C  0.20279902  0.83504341  0.67483460    -0.12000
C903        C  0.18636047  0.84723691  0.69712530     0.01300
C904        C  0.17473011  0.86332948  0.67249956    -0.24200
H905        H  0.22251251  0.83212925  0.46525974     0.09300
H906        H  0.22626077  0.83446720  0.54502849     0.12900
H907        H  0.16440046  0.87399299  0.46758512     0.06200
H908        H  0.15243750  0.89002293  0.53766659     0.12800
H909        H  0.15160597  0.88962923  0.61886660     0.11800
H910        H  0.21957565  0.82769868  0.61405968     0.08900
H911        H  0.21217778  0.82269377  0.69316581     0.12200
H912        H  0.16175579  0.87263376  0.68943726     0.14000
C913        C  0.15960956  0.81696155  0.19741286    -0.01500
C914        C  0.16986150  0.79933616  0.17374465    -0.09500
C915        C  0.16671967  0.79637889  0.12732686    -0.18300
C916        C  0.15392630  0.81180684  0.10281321     0.04100
C917        C  0.14380046  0.82987838  0.12707398     0.18200
C918        C  0.14608856  0.83171421  0.17387244    -0.19800
C919        C  0.13234721  0.84682953  0.10442807    -0.21000
C920        C  0.13158534  0.84702021  0.05807238    -0.19600
C921        C  0.14152802  0.82964784  0.03315258     0.19600
C922        C  0.15192013  0.81099058  0.05511804     0.01800
C923        C  0.16029376  0.79277322  0.02827659    -0.14300
C924        C  0.16013236  0.79449677  0.98173654    -0.12000
C925        C  0.15176214  0.81444679  0.96028992     0.01300
C926        C  0.14178413  0.83140080  0.98631336    -0.24200
H927        H  0.18047585  0.78782997  0.19124975     0.09300
H928        H  0.17540765  0.78265732  0.11148451     0.12900
H929        H  0.13859847  0.84586145  0.19189865     0.11600
H930        H  0.12465930  0.86070637  0.12269037     0.12800
H931        H  0.12336562  0.86106631  0.04157791     0.11800
H932        H  0.16731155  0.77715020  0.04225739     0.08900
H933        H  0.16763862  0.78086416  0.96251364     0.12200
H934        H  0.13476423  0.84652880  0.97012059     0.14000
C935        C  0.25792504  0.88003702  0.86360502    -0.01500
C936        C  0.27178136  0.91197400  0.87347935    -0.09500
C937        C  0.30176744  0.92831966  0.89177929    -0.18300
C938        C  0.31890929  0.91309084  0.90109692     0.04100
C939        C  0.30506633  0.88090546  0.88973038     0.18200
C940        C  0.27500034  0.86483520  0.87113579    -0.19800
C941        C  0.32108665  0.86473166  0.89757989    -0.21000
C942        C  0.35058919  0.87976182  0.91685141    -0.19600
C943        C  0.36473910  0.91129648  0.92898620     0.19600
C944        C  0.34915701  0.92848488  0.92139420     0.01800
C945        C  0.36452057  0.96023350  0.93469597    -0.14300
C946        C  0.39428919  0.97437079  0.95382426    -0.12000
C947        C  0.40967444  0.95739743  0.96068478     0.01300
C948        C  0.39455673  0.92576219  0.94849035    -0.24200
H949        H  0.25919637  0.92436490  0.86777402     0.09300
H950        H  0.31071589  0.95275388  0.89862704     0.12900
H951        H  0.26459591  0.84014538  0.86354090     0.11600
H952        H  0.31067317  0.84021803  0.88888648     0.12800
H953        H  0.36238128  0.86656444  0.92248332     0.11800
H954        H  0.35424743  0.97483076  0.93065194     0.08900
H955        H  0.40538796  0.99883340  0.96302172     0.12200
H956        H  0.40625706  0.91239458  0.95341040     0.14000
C957        C  0.81205203  0.65653702  0.79567969    -0.01500
C958        C  0.79845547  0.62811686  0.81881006    -0.09500
C959        C  0.79462419  0.62724495  0.86512899    -0.18300
C960        C  0.80494610  0.65504513  0.89015268     0.04100
C961        C  0.81834296  0.68376703  0.86641285     0.18200
C962        C  0.82122164  0.68418841  0.81971243    -0.19800
C963        C  0.82985304  0.71206678  0.88952866    -0.21000
C964        C  0.82962011  0.71264546  0.93589469    -0.19600
C965        C  0.81722995  0.68488358  0.96035886     0.19600
C966        C  0.80368427  0.65558102  0.93787612     0.01800
C967        C  0.79014901  0.62821603  0.96427855    -0.14300
C968        C  0.79169920  0.62998811  0.01085153    -0.12000
C969        C  0.80697248  0.65896372  0.03273697     0.01300
C970        C  0.81907590  0.68632426  0.00724004    -0.24200
H971        H  0.79105845  0.60640205  0.80106379     0.09300
H972        H  0.78441849  0.60454665  0.88051373     0.12900
H973        H  0.83200111  0.70635945  0.80226018     0.11600
H974        H  0.83999026  0.73403502  0.87164454     0.12800
H975        H  0.83959863  0.73503391  0.95276298     0.11800
H976        H  0.77852087  0.60509924  0.94993267     0.08900
H977        H  0.78201195  0.60848139  0.02977526     0.12200
H978        H  0.83052232  0.70884524  0.02391069     0.14000
C979        C  0.84418202  0.66052490  0.29530312    -0.01500
C980        C  0.86509346  0.68867207  0.31660254    -0.09500
C981        C  0.86813350  0.69040027  0.36312507    -0.18300
C982        C  0.85038920  0.66379806  0.39012114     0.04100
C983        C  0.83031746  0.63499883  0.36821557     0.18200
C984        C  0.82718432  0.63369498  0.32148256    -0.19800
C985        C  0.81315282  0.60765966  0.39309623    -0.21000
C986        C  0.81531262  0.60825469  0.43935873    -0.19600
C987        C  0.83402278  0.63635483  0.46209388     0.19600
C988        C  0.85158630  0.66466293  0.43793702     0.01800
C989        C  0.86868040  0.69262598  0.46282419    -0.14300
C990        C  0.86782168  0.69244314  0.50955257    -0.12000
C991        C  0.85074860  0.66440285  0.53306138     0.01300
C992        C  0.83439172  0.63639414  0.50901046    -0.24200
H993        H  0.87862947  0.70976466  0.29731305     0.09300
H994        H  0.88454023  0.71288361  0.37700495     0.12900
H995        H  0.81114320  0.61169234  0.30549145     0.11600
H996        H  0.79791984  0.58560310  0.37663851     0.12800
H997        H  0.80168854  0.58663911  0.45756556     0.11800
H998        H  0.88207821  0.71512126  0.44711427     0.08900
H999        H  0.88035625  0.71440854  0.52741881     0.12200
H1000       H  0.82049308  0.61466902  0.52690638     0.14000
C1001       C  0.74419200  0.62124723  0.62466132    -0.01500
C1002       C  0.72715036  0.63678034  0.62780097    -0.09500
C1003       C  0.69692448  0.62327802  0.61057124    -0.18300
C1004       C  0.68295216  0.59381540  0.58903543     0.04100
C1005       C  0.70056945  0.57832580  0.58579979     0.18200
C1006       C  0.73072290  0.59200097  0.60375603    -0.19800
C1007       C  0.68809276  0.54930331  0.56452112    -0.21000
C1008       C  0.65817709  0.53499779  0.54673405    -0.19600
C1009       C  0.64007302  0.54940953  0.54976934     0.19600
C1010       C  0.65220097  0.57911853  0.57066940     0.01800
C1011       C  0.63291580  0.59266560  0.57243711    -0.14300
C1012       C  0.60272353  0.57707666  0.55495293    -0.12000
C1013       C  0.59073513  0.54755825  0.53521667     0.01300
C1014       C  0.60968590  0.53402106  0.53238166    -0.24200
H1015       H  0.73718895  0.65945582  0.64381365     0.09300
H1016       H  0.68523819  0.63657353  0.61451066     0.12900
H1017       H  0.74399575  0.58004577  0.60065865     0.11600
H1018       H  0.70152628  0.53751237  0.56177263     0.12800
H1019       H  0.64907039  0.51240917  0.53068988     0.11800
H1020       H  0.64029356  0.61511827  0.58744659     0.08900
H1021       H  0.58849342  0.58799320  0.55775141     0.12200
H1022       H  0.60064866  0.51119300  0.51708458     0.14000
C1023       C  0.07653332  0.78060827  0.79492333    -0.01500
C1024       C  0.05955524  0.74792772  0.79711356    -0.09500
C1025       C  0.02876546  0.73129339  0.78158899    -0.18300
C1026       C  0.01419278  0.74697985  0.76258031     0.04100
C1027       C  0.03151603  0.78019754  0.76121234     0.18200
C1028       C  0.06213349  0.79654016  0.77759865    -0.19800
C1029       C  0.01846422  0.79704002  0.74275684    -0.21000
C1030       C  0.98854317  0.78161248  0.72505719    -0.19600
C1031       C  0.97095593  0.74897362  0.72538564     0.19600
C1032       C  0.98334284  0.73107018  0.74428364     0.01800
C1033       C  0.96438438  0.69811175  0.74351063    -0.14300
C1034       C  0.93448792  0.68369130  0.72469865    -0.12000
C1035       C  0.92249499  0.70157190  0.70626613     0.01300
C1036       C  0.94094817  0.73419854  0.70677482    -0.24200
H1037       H  0.07015595  0.73513933  0.81074360     0.09300
H1038       H  0.01718050  0.70621677  0.78437873     0.12900
H1039       H  0.07514986  0.82184644  0.77556476     0.11600
H1040       H  0.03160131  0.82235864  0.74166894     0.12800
H1041       H  0.97914915  0.79533267  0.71076271     0.11800
H1042       H  0.97193420  0.68283948  0.75721525     0.08900
H1043       H  0.92054959  0.65842160  0.72519398     0.12200
H1044       H  0.93189865  0.74830332  0.69273885     0.14000
loop_ 
_geom_bond_atom_site_label_1 
_geom_bond_atom_site_label_2 
_geom_bond_distance 
_geom_bond_site_symmetry_2 
_ccdc_geom_bond_type 
O1           Ni9   1.908       .  S
O1           C11   1.281       .  A
O2           Ni9   1.913       .  S
O2           C12   1.281       .  A
O3           Ni9   1.921       .  S
O3           C13   1.282       .  A
O4           Ni9   1.923       .  S
O4           C14   1.282       .  A
O5          Ni10   1.924       .  S
O5           C14   1.283       .  A
O6          Ni10   1.923       .  S
O6           C13   1.283       .  A
O7          Ni10   1.908       .  S
O7           C12   1.280       .  A
O8          Ni10   1.918       .  S
O8           C11   1.281       .  A
Ni9         Ni10   2.388       .  S
C11        C1035   1.478       .  S
C12        C1001   1.471       .  S
C13         C957   1.485       .  S
C14         C991   1.483       .  S
O15         Ni23   1.909       .  S
O15          C25   1.280       .  A
O16         Ni23   1.915       .  S
O16          C26   1.281       .  A
O17         Ni23   1.924       .  S
O17          C27   1.282       .  A
O18         Ni23   1.924       .  S
O18          C28   1.283       .  A
O19         Ni24   1.917       .  S
O19          C28   1.282       .  A
O20         Ni24   1.919       .  S
O20          C27   1.282       .  A
O21         Ni24   1.914       .  S
O21          C26   1.282       .  A
O22         Ni24   1.920       .  S
O22          C25   1.282       .  A
Ni23        Ni24   2.387       .  S
C25        C1023   1.476       .  S
C26         C935   1.480       .  S
C27         C903   1.482       .  S
C28         C925   1.485       .  S
O29         Ni37   1.906   1_554  S
O29          C39   1.280       .  A
O30         Ni37   1.917       .  S
O30          C40   1.281   1_545  A
O31         Ni37   1.922   1_554  S
O31          C41   1.283   1_545  A
O32         Ni37   1.922       .  S
O32          C42   1.282       .  A
O33         Ni38   1.926   1_556  S
O33          C42   1.283   1_565  A
O34         Ni38   1.926       .  S
O34          C41   1.283       .  A
O35         Ni38   1.917   1_556  S
O35          C40   1.282       .  A
O36         Ni38   1.922       .  S
O36          C39   1.283   1_565  A
Ni37        Ni38   2.386   1_546  S
C39         C869   1.480       .  S
C40         C947   1.481       .  S
C41         C859   1.487   1_565  S
C42         C837   1.483       .  S
O43         Ni51   1.926       .  S
O43          C53   1.283       .  A
O44         Ni51   1.921       .  S
O44          C54   1.282       .  A
O45         Ni51   1.923       .  S
O45          C55   1.283       .  A
O46         Ni51   1.918       .  S
O46          C56   1.282       .  A
O47         Ni52   1.924       .  S
O47          C56   1.283       .  A
O48         Ni52   1.923       .  S
O48          C55   1.283       .  A
O49         Ni52   1.908       .  S
O49          C54   1.280       .  A
O50         Ni52   1.908       .  S
O50          C53   1.280       .  A
Ni51        Ni52   2.386       .  S
C53         C793   1.482       .  S
C54         C803   1.479       .  S
C55         C771   1.488       .  S
C56         C749   1.484       .  S
O57         Ni65   1.921       .  S
O57          C67   1.283       .  A
O58         Ni65   1.913       .  S
O58          C68   1.282       .  A
O59         Ni65   1.918       .  S
O59          C69   1.281       .  A
O60         Ni65   1.918       .  S
O60          C70   1.281       .  A
O61         Ni66   1.920       .  S
O61          C70   1.283       .  A
O62         Ni66   1.922       .  S
O62          C69   1.283       .  A
O63         Ni66   1.917       .  S
O63          C68   1.281       .  A
O64         Ni66   1.914       .  S
O64          C67   1.281       .  A
Ni65        Ni66   2.387       .  S
C67         C781   1.483       .  S
C68         C881   1.480       .  S
C69         C727   1.482       .  S
C70         C705   1.481       .  S
O71         Ni79   1.913       .  S
O71          C81   1.281       .  A
O72         Ni79   1.907       .  S
O72          C82   1.280       .  A
O73         Ni79   1.919       .  S
O73          C83   1.281       .  A
O74         Ni79   1.920       .  S
O74          C84   1.282       .  A
O75         Ni80   1.929       .  S
O75          C84   1.283       .  A
O76         Ni80   1.928       .  S
O76          C83   1.284       .  A
O77         Ni80   1.919       .  S
O77          C82   1.282       .  A
O78         Ni80   1.909       .  S
O78          C81   1.280       .  A
Ni79        Ni80   2.387       .  S
C81        C1013   1.475       .  S
C82         C815   1.478       .  S
C83         C661   1.482       .  S
C84         C671   1.484       .  S
O85         Ni93   1.918       .  S
O85          C95   1.282       .  A
O86         Ni93   1.929       .  S
O86          C96   1.284       .  A
O87         Ni93   1.923       .  S
O87          C97   1.282       .  A
O88         Ni93   1.928       .  S
O88          C98   1.283       .  A
O89         Ni94   1.919       .  S
O89          C98   1.281       .  A
O90         Ni94   1.918       .  S
O90          C97   1.282       .  A
O91         Ni94   1.908       .  S
O91          C96   1.281       .  A
O92         Ni94   1.916       .  S
O92          C95   1.281       .  A
Ni93        Ni94   2.387       .  S
C95         C627   1.479       .  S
C96         C617   1.485       .  S
C97         C737   1.480       .  S
C98         C759   1.480       .  S
O99        Ni107   1.917       .  S
O99         C109   1.282       .  A
O100       Ni107   1.923       .  S
O100        C110   1.283       .  A
O101       Ni107   1.918       .  S
O101        C111   1.281       .  A
O102       Ni107   1.917       .  S
O102        C112   1.282       .  A
O103       Ni108   1.919       .  S
O103        C112   1.282       .  A
O104       Ni108   1.917       .  S
O104        C111   1.282       .  A
O105       Ni108   1.909       .  S
O105        C110   1.280       .  A
O106       Ni108   1.914       .  S
O106        C109   1.281       .  A
Ni107      Ni108   2.387       .  S
C109        C639   1.480       .  S
C110        C583   1.481       .  S
C111        C551   1.476       .  S
C112        C561   1.482       .  S
O113       Ni121   1.916   1_554  S
O113        C123   1.282       .  A
O114       Ni121   1.925       .  S
O114        C124   1.283   1_655  A
O115       Ni121   1.920   1_554  S
O115        C125   1.282       .  A
O116       Ni121   1.917       .  S
O116        C126   1.281       .  A
O117       Ni122   1.913   1_556  S
O117        C126   1.281   1_455  A
O118       Ni122   1.915       .  S
O118        C125   1.281   1_455  A
O119       Ni122   1.911   1_556  S
O119        C124   1.281       .  A
O120       Ni122   1.918       .  S
O120        C123   1.282   1_455  A
Ni121      Ni122   2.388   1_656  S
C123        C529   1.482       .  S
C124        C605   1.484       .  S
C125        C495   1.476       .  S
C126        C485   1.474       .  S
O127       Ni135   1.920       .  S
O127        C137   1.283       .  A
O128       Ni135   1.914       .  S
O128        C138   1.281       .  A
O129       Ni135   1.917       .  S
O129        C139   1.281       .  A
O130       Ni135   1.917       .  S
O130        C140   1.281       .  A
O131       Ni136   1.922       .  S
O131        C140   1.282       .  A
O132       Ni136   1.921       .  S
O132        C139   1.282       .  A
O133       Ni136   1.911       .  S
O133        C138   1.280       .  A
O134       Ni136   1.906       .  S
O134        C137   1.280       .  A
Ni135      Ni136   2.388       .  S
C137        C429   1.478       .  S
C138        C463   1.476       .  S
C139        C407   1.479       .  S
C140        C385   1.478       .  S
O141       Ni149   1.920       .  S
O141        C151   1.283       .  A
O142       Ni149   1.917       .  S
O142        C152   1.282       .  A
O143       Ni149   1.922       .  S
O143        C153   1.283       .  A
O144       Ni149   1.920       .  S
O144        C154   1.282       .  A
O145       Ni150   1.925       .  S
O145        C154   1.283       .  A
O146       Ni150   1.925       .  S
O146        C153   1.283       .  A
O147       Ni150   1.916       .  S
O147        C152   1.281       .  A
O148       Ni150   1.910       .  S
O148        C151   1.280       .  A
Ni149      Ni150   2.386       .  S
C151        C441   1.480       .  S
C152        C517   1.481       .  S
C153        C979   1.488       .  S
C154        C969   1.483       .  S
O155       Ni163   1.908   1_545  S
O155        C165   1.280       .  A
O156       Ni163   1.899       .  S
O156        C166   1.279       .  A
O157       Ni163   1.926       .  S
O157        C167   1.284   1_565  A
O158       Ni163   1.927       .  S
O158        C168   1.283   1_565  A
O159       Ni164   1.923       .  S
O159        C168   1.283       .  A
O160       Ni164   1.923       .  S
O160        C167   1.282       .  A
O161       Ni164   1.922       .  S
O161        C166   1.283   1_545  A
O162       Ni164   1.919       .  S
O162        C165   1.283       .  A
Ni163      Ni164   2.386   1_565  S
C165        C595   1.479       .  S
C166        C451   1.476       .  S
C167        C825   1.488       .  S
C168        C847   1.488       .  S
O169       Ni177   1.919       .  S
O169        C179   1.282       .  A
O170       Ni177   1.921       .  S
O170        C180   1.282       .  A
O171       Ni177   1.916       .  S
O171        C181   1.281       .  A
O172       Ni177   1.908       .  S
O172        C182   1.281       .  A
O173       Ni178   1.917       .  S
O173        C182   1.281       .  A
O174       Ni178   1.913       .  S
O174        C181   1.281       .  A
O175       Ni178   1.916       .  S
O175        C180   1.281       .  A
O176       Ni178   1.916       .  S
O176        C179   1.282       .  A
Ni177      Ni178   2.388       .  S
C179        C539   1.482       .  S
C180        C573   1.477       .  S
C181        C363   1.478       .  S
C182        C353   1.477       .  S
O183       Ni191   1.930   1_556  S
O183        C193   1.284       .  A
O184       Ni191   1.931       .  S
O184        C194   1.285       .  A
O185       Ni191   1.913   1_556  S
O185        C195   1.281       .  A
O186       Ni191   1.918       .  S
O186        C196   1.281       .  A
O187       Ni192   1.911   1_554  S
O187        C196   1.281       .  A
O188       Ni192   1.915       .  S
O188        C195   1.282       .  A
O189       Ni192   1.917   1_554  S
O189        C194   1.281       .  A
O190       Ni192   1.918       .  S
O190        C193   1.282       .  A
Ni191      Ni192   2.386   1_554  S
C193        C649   1.489       .  S
C194        C683   1.489       .  S
C195        C331   1.480       .  S
C196        C375   1.476       .  S
O197       Ni205   1.919       .  S
O197        C207   1.282       .  A
O198       Ni205   1.915       .  S
O198        C208   1.281       .  A
O199       Ni205   1.923       .  S
O199        C209   1.283       .  A
O200       Ni205   1.922       .  S
O200        C210   1.283       .  A
O201       Ni206   1.918       .  S
O201        C210   1.281       .  A
O202       Ni206   1.921       .  S
O202        C209   1.282       .  A
O203       Ni206   1.917       .  S
O203        C208   1.282       .  A
O204       Ni206   1.908       .  S
O204        C207   1.280       .  A
Ni205      Ni206   2.387       .  S
C207        C341   1.478       .  S
C208        C309   1.481       .  S
C209        C913   1.481       .  S
C210        C891   1.481       .  S
O211       Ni219   1.916       .  S
O211        C221   1.282       .  A
O212       Ni219   1.916       .  S
O212        C222   1.281   1_655  A
O213       Ni219   1.926   1_455  S
O213        C223   1.284       .  A
O214       Ni219   1.923       .  S
O214        C224   1.283       .  A
O215       Ni220   1.915   1_655  S
O215        C224   1.282       .  A
O216       Ni220   1.909       .  S
O216        C223   1.280       .  A
O217       Ni220   1.917       .  S
O217        C222   1.282       .  A
O218       Ni220   1.919       .  S
O218        C221   1.282   1_455  A
Ni219      Ni220   2.387   1_655  S
C221        C507   1.479       .  S
C222        C473   1.477       .  S
C223        C297   1.482       .  S
C224        C275   1.485       .  S
O225       Ni233   1.925       .  S
O225        C235   1.283       .  A
O226       Ni233   1.926       .  S
O226        C236   1.283       .  A
O227       Ni233   1.918       .  S
O227        C237   1.282       .  A
O228       Ni233   1.925       .  S
O228        C238   1.283       .  A
O229       Ni234   1.915       .  S
O229        C238   1.282       .  A
O230       Ni234   1.920       .  S
O230        C237   1.283       .  A
O231       Ni234   1.911       .  S
O231        C236   1.280       .  A
O232       Ni234   1.913       .  S
O232        C235   1.281       .  A
Ni233      Ni234   2.387       .  S
C235        C715   1.478       .  S
C236        C693   1.478       .  S
C237        C287   1.484       .  S
C238        C253   1.485       .  S
O239       Ni247   1.915       .  S
O239        C249   1.281       .  A
O240       Ni247   1.914       .  S
O240        C250   1.281       .  A
O241       Ni247   1.927       .  S
O241        C251   1.284       .  A
O242       Ni247   1.926       .  S
O242        C252   1.283       .  A
O243       Ni248   1.912       .  S
O243        C252   1.281       .  A
O244       Ni248   1.913       .  S
O244        C251   1.281       .  A
O245       Ni248   1.924       .  S
O245        C250   1.283       .  A
O246       Ni248   1.916       .  S
O246        C249   1.282       .  A
Ni247      Ni248   2.386       .  S
C249        C319   1.481       .  S
C250        C265   1.485       .  S
C251        C419   1.484       .  S
C252        C397   1.481       .  S
C253        C254   1.402       .  A
C253        C258   1.404       .  A
C254        C255   1.395       .  A
C254        H267   1.083       .  S
C255        C256   1.414       .  A
C255        H268   1.077       .  S
C256        C262   1.431   1_545  A
C256        C257   1.422       .  A
C257        C259   1.400       .  A
C257        C258   1.408       .  A
C258        H269   1.084       .  S
C259        C260   1.391   1_545  A
C259        H270   1.084       .  S
C260        C261   1.400       .  A
C260        H271   1.084       .  S
C261        C262   1.422       .  A
C261        C266   1.408       .  A
C262        C263   1.414       .  A
C263        C264   1.395       .  A
C263        H272   1.077       .  S
C264        C265   1.402       .  A
C264        H273   1.083       .  S
C265        C266   1.404       .  A
C266        H274   1.084       .  S
C275        C276   1.402       .  A
C275        C280   1.403       .  A
C276        C277   1.400       .  A
C276        H289   1.083       .  S
C277        C278   1.416       .  A
C277        H290   1.077       .  S
C278        C284   1.432       .  A
C278        C279   1.422       .  A
C279        C281   1.399       .  A
C279        C280   1.404       .  A
C280        H291   1.084       .  S
C281        C282   1.389       .  A
C281        H292   1.084       .  S
C282        C283   1.399       .  A
C282        H293   1.084       .  S
C283        C284   1.423       .  A
C283        C288   1.405       .  A
C284        C285   1.415       .  A
C285        C286   1.398       .  A
C285        H294   1.077       .  S
C286        C287   1.402       .  A
C286        H295   1.083       .  S
C287        C288   1.402       .  A
C288        H296   1.084       .  S
C297        C298   1.402       .  A
C297        C302   1.402       .  A
C298        C299   1.395       .  A
C298        H311   1.083       .  S
C299        C300   1.413       .  A
C299        H312   1.077       .  S
C300        C306   1.429       .  A
C300        C301   1.423       .  A
C301        C303   1.399       .  A
C301        C302   1.406       .  A
C302        H313   1.084       .  S
C303        C304   1.390       .  A
C303        H314   1.084       .  S
C304        C305   1.400       .  A
C304        H315   1.084       .  S
C305        C306   1.421       .  A
C305        C310   1.404       .  A
C306        C307   1.415       .  A
C307        C308   1.397       .  A
C307        H316   1.077       .  S
C308        C309   1.401       .  A
C308        H317   1.083       .  S
C309        C310   1.403       .  A
C310        H318   1.084       .  S
C319        C320   1.401       .  A
C319        C324   1.402       .  A
C320        C321   1.396       .  A
C320        H333   1.083       .  S
C321        C322   1.415       .  A
C321        H334   1.077       .  S
C322        C328   1.429       .  A
C322        C323   1.422       .  A
C323        C325   1.399       .  A
C323        C324   1.403       .  A
C324        H335   1.084       .  S
C325        C326   1.388       .  A
C325        H336   1.084       .  S
C326        C327   1.399       .  A
C326        H337   1.084       .  S
C327        C328   1.422       .  A
C327        C332   1.403       .  A
C328        C329   1.415       .  A
C329        C330   1.396       .  A
C329        H338   1.077       .  S
C330        C331   1.401       .  A
C330        H339   1.083       .  S
C331        C332   1.402       .  A
C332        H340   1.084       .  S
C341        C342   1.401       .  A
C341        C346   1.401       .  A
C342        C343   1.397       .  A
C342        H355   1.083       .  S
C343        C344   1.415       .  A
C343        H356   1.077       .  S
C344        C350   1.428   1_565  A
C344        C345   1.422       .  A
C345        C347   1.398       .  A
C345        C346   1.400       .  A
C346        H357   1.084       .  S
C347        C348   1.386   1_565  A
C347        H358   1.084       .  S
C348        C349   1.398       .  A
C348        H359   1.084       .  S
C349        C350   1.422       .  A
C349        C354   1.400       .  A
C350        C351   1.415       .  A
C351        C352   1.397       .  A
C351        H360   1.077       .  S
C352        C353   1.401       .  A
C352        H361   1.083       .  S
C353        C354   1.401       .  A
C354        H362   1.084       .  S
C363        C364   1.401       .  A
C363        C368   1.400       .  A
C364        C365   1.397       .  A
C364        H377   1.083       .  S
C365        C366   1.415       .  A
C365        H378   1.077       .  S
C366        C372   1.430       .  A
C366        C367   1.423       .  A
C367        C369   1.398       .  A
C367        C368   1.402       .  A
C368        H379   1.085       .  S
C369        C370   1.387       .  A
C369        H380   1.084       .  S
C370        C371   1.398       .  A
C370        H381   1.084       .  S
C371        C372   1.422       .  A
C371        C376   1.401       .  A
C372        C373   1.416       .  A
C373        C374   1.398       .  A
C373        H382   1.077       .  S
C374        C375   1.400       .  A
C374        H383   1.083       .  S
C375        C376   1.400       .  A
C376        H384   1.085       .  S
C385        C386   1.400       .  A
C385        C390   1.401       .  A
C386        C387   1.397       .  A
C386        H399   1.083       .  S
C387        C388   1.415       .  A
C387        H400   1.077       .  S
C388        C394   1.431       .  A
C388        C389   1.423       .  A
C389        C391   1.399       .  A
C389        C390   1.406       .  A
C390        H401   1.085       .  S
C391        C392   1.391       .  A
C391        H402   1.084       .  S
C392        C393   1.400       .  A
C392        H403   1.084       .  S
C393        C394   1.423       .  A
C393        C398   1.407       .  A
C394        C395   1.414       .  A
C395        C396   1.396       .  A
C395        H404   1.077       .  S
C396        C397   1.401       .  A
C396        H405   1.083       .  S
C397        C398   1.402       .  A
C398        H406   1.084       .  S
C407        C408   1.400       .  A
C407        C412   1.402       .  A
C408        C409   1.398       .  A
C408        H421   1.083       .  S
C409        C410   1.416       .  A
C409        H422   1.078       .  S
C410        C416   1.431       .  A
C410        C411   1.422       .  A
C411        C413   1.400       .  A
C411        C412   1.406       .  A
C412        H423   1.085       .  S
C413        C414   1.391       .  A
C413        H424   1.084       .  S
C414        C415   1.400       .  A
C414        H425   1.084       .  S
C415        C416   1.423       .  A
C415        C420   1.408   1_554  A
C416        C417   1.413       .  A
C417        C418   1.396   1_554  A
C417        H426   1.078       .  S
C418        C419   1.402       .  A
C418        H427   1.083       .  S
C419        C420   1.403       .  A
C420        H428   1.084       .  S
C429        C430   1.400       .  A
C429        C434   1.402       .  A
C430        C431   1.396       .  A
C430        H443   1.083       .  S
C431        C432   1.415       .  A
C431        H444   1.077       .  S
C432        C438   1.429       .  A
C432        C433   1.422       .  A
C433        C435   1.399       .  A
C433        C434   1.402       .  A
C434        H445   1.084       .  S
C435        C436   1.388       .  A
C435        H446   1.084       .  S
C436        C437   1.399       .  A
C436        H447   1.084       .  S
C437        C438   1.422       .  A
C437        C442   1.402       .  A
C438        C439   1.415       .  A
C439        C440   1.396       .  A
C439        H448   1.077       .  S
C440        C441   1.400       .  A
C440        H449   1.083       .  S
C441        C442   1.402       .  A
C442        H450   1.084       .  S
C451        C452   1.400       .  A
C451        C456   1.402       .  A
C452        C453   1.397       .  A
C452        H465   1.083   1_565  S
C453        C454   1.417       .  A
C453        H466   1.077       .  S
C454        C460   1.427       .  A
C454        C455   1.420       .  A
C455        C457   1.399       .  A
C455        C456   1.398       .  A
C456        H467   1.084       .  S
C457        C458   1.387       .  A
C457        H468   1.084       .  S
C458        C459   1.398       .  A
C458        H469   1.084       .  S
C459        C460   1.423       .  A
C459        C464   1.401       .  A
C460        C461   1.413       .  A
C461        C462   1.394       .  A
C461        H470   1.077       .  S
C462        C463   1.401       .  A
C462        H471   1.083       .  S
C463        C464   1.400       .  A
C464        H472   1.084       .  S
C473        C474   1.399       .  A
C473        C478   1.402   1_455  A
C474        C475   1.395       .  A
C474        H487   1.083       .  S
C475        C476   1.415       .  A
C475        H488   1.077       .  S
C476        C482   1.428       .  A
C476        C477   1.422   1_455  A
C477        C479   1.400       .  A
C477        C478   1.405       .  A
C478        H489   1.085       .  S
C479        C480   1.390       .  A
C479        H490   1.084       .  S
C480        C481   1.399       .  A
C480        H491   1.084       .  S
C481        C482   1.422   1_655  A
C481        C486   1.405       .  A
C482        C483   1.414       .  A
C483        C484   1.394       .  A
C483        H492   1.077       .  S
C484        C485   1.399   1_455  A
C484        H493   1.084       .  S
C485        C486   1.400       .  A
C486        H494   1.085       .  S
C495        C496   1.400       .  A
C495        C500   1.401   1_655  A
C496        C497   1.396       .  A
C496        H509   1.084       .  S
C497        C498   1.415       .  A
C497        H510   1.077       .  S
C498        C504   1.430       .  A
C498        C499   1.422   1_655  A
C499        C501   1.399       .  A
C499        C500   1.405       .  A
C500        H511   1.085       .  S
C501        C502   1.390       .  A
C501        H512   1.084       .  S
C502        C503   1.400       .  A
C502        H513   1.084       .  S
C503        C504   1.422   1_455  A
C503        C508   1.406       .  A
C504        C505   1.415       .  A
C505        C506   1.396       .  A
C505        H514   1.077       .  S
C506        C507   1.400       .  A
C506        H515   1.083       .  S
C507        C508   1.402   1_655  A
C508        H516   1.085       .  S
C517        C518   1.401       .  A
C517        C522   1.402       .  A
C518        C519   1.396       .  A
C518        H531   1.083       .  S
C519        C520   1.415       .  A
C519        H532   1.077       .  S
C520        C526   1.430       .  A
C520        C521   1.422       .  A
C521        C523   1.399       .  A
C521        C522   1.405       .  A
C522        H533   1.084       .  S
C523        C524   1.389       .  A
C523        H534   1.084       .  S
C524        C525   1.399       .  A
C524        H535   1.084       .  S
C525        C526   1.422       .  A
C525        C530   1.404       .  A
C526        C527   1.415       .  A
C527        C528   1.396       .  A
C527        H536   1.077       .  S
C528        C529   1.401       .  A
C528        H537   1.083       .  S
C529        C530   1.403       .  A
C530        H538   1.084       .  S
C539        C540   1.401       .  A
C539        C544   1.403       .  A
C540        C541   1.396   1_554  A
C540        H553   1.083       .  S
C541        C542   1.414       .  A
C541        H554   1.077       .  S
C542        C548   1.430       .  A
C542        C543   1.422       .  A
C543        C545   1.400       .  A
C543        C544   1.406   1_556  A
C544        H555   1.084       .  S
C545        C546   1.390       .  A
C545        H556   1.084       .  S
C546        C547   1.400       .  A
C546        H557   1.084       .  S
C547        C548   1.422       .  A
C547        C552   1.405       .  A
C548        C549   1.415       .  A
C549        C550   1.396       .  A
C549        H558   1.077       .  S
C550        C551   1.399       .  A
C550        H559   1.083       .  S
C551        C552   1.401       .  A
C552        H560   1.085       .  S
C561        C562   1.401       .  A
C561        C566   1.403       .  A
C562        C563   1.397       .  A
C562        H575   1.083       .  S
C563        C564   1.415       .  A
C563        H576   1.077       .  S
C564        C570   1.430       .  A
C564        C565   1.422       .  A
C565        C567   1.400       .  A
C565        C566   1.405       .  A
C566        H577   1.084       .  S
C567        C568   1.390       .  A
C567        H578   1.084       .  S
C568        C569   1.400       .  A
C568        H579   1.084       .  S
C569        C570   1.423       .  A
C569        C574   1.406       .  A
C570        C571   1.415       .  A
C571        C572   1.396       .  A
C571        H580   1.077       .  S
C572        C573   1.399       .  A
C572        H581   1.083       .  S
C573        C574   1.401       .  A
C574        H582   1.085       .  S
C583        C584   1.401       .  A
C583        C588   1.402       .  A
C584        C585   1.398       .  A
C584        H597   1.083       .  S
C585        C586   1.416       .  A
C585        H598   1.077       .  S
C586        C592   1.430       .  A
C586        C587   1.421       .  A
C587        C589   1.399       .  A
C587        C588   1.401       .  A
C588        H599   1.084       .  S
C589        C590   1.387       .  A
C589        H600   1.084       .  S
C590        C591   1.398       .  A
C590        H601   1.084       .  S
C591        C592   1.423       .  A
C591        C596   1.403       .  A
C592        C593   1.414       .  A
C593        C594   1.396       .  A
C593        H602   1.077       .  S
C594        C595   1.402       .  A
C594        H603   1.083       .  S
C595        C596   1.400       .  A
C596        H604   1.084       .  S
C605        C606   1.401       .  A
C605        C610   1.405       .  A
C606        C607   1.392       .  A
C606        H619   1.083       .  S
C607        C608   1.413       .  A
C607        H620   1.076       .  S
C608        C614   1.429       .  A
C608        C609   1.422       .  A
C609        C611   1.401       .  A
C609        C610   1.409       .  A
C610        H621   1.084       .  S
C611        C612   1.393       .  A
C611        H622   1.084   1_455  S
C612        C613   1.401       .  A
C612        H623   1.084       .  S
C613        C614   1.422       .  A
C613        C618   1.410       .  A
C614        C615   1.413       .  A
C615        C616   1.392       .  A
C615        H624   1.077       .  S
C616        C617   1.401       .  A
C616        H625   1.083       .  S
C617        C618   1.405       .  A
C618        H626   1.084       .  S
C627        C628   1.400       .  A
C627        C632   1.401       .  A
C628        C629   1.397       .  A
C628        H641   1.083       .  S
C629        C630   1.415       .  A
C629        H642   1.077       .  S
C630        C636   1.430       .  A
C630        C631   1.422       .  A
C631        C633   1.399       .  A
C631        C632   1.404       .  A
C632        H643   1.085       .  S
C633        C634   1.389       .  A
C633        H644   1.084       .  S
C634        C635   1.399       .  A
C634        H645   1.084       .  S
C635        C636   1.423       .  A
C635        C640   1.404       .  A
C636        C637   1.415       .  A
C637        C638   1.396       .  A
C637        H646   1.077       .  S
C638        C639   1.401       .  A
C638        H647   1.083       .  S
C639        C640   1.401       .  A
C640        H648   1.084       .  S
C649        C650   1.403       .  A
C649        C654   1.404       .  A
C650        C651   1.398       .  A
C650        H663   1.083       .  S
C651        C652   1.414       .  A
C651        H664   1.077       .  S
C652        C658   1.434       .  A
C652        C653   1.423       .  A
C653        C655   1.400       .  A
C653        C654   1.410       .  A
C654        H665   1.084       .  S
C655        C656   1.392       .  A
C655        H666   1.084       .  S
C656        C657   1.400       .  A
C656        H667   1.084       .  S
C657        C658   1.422       .  A
C657        C662   1.408       .  A
C658        C659   1.416       .  A
C659        C660   1.400       .  A
C659        H668   1.077       .  S
C660        C661   1.400       .  A
C660        H669   1.083       .  S
C661        C662   1.402       .  A
C662        H670   1.085       .  S
C671        C672   1.400       .  A
C671        C676   1.404       .  A
C672        C673   1.397       .  A
C672        H685   1.083       .  S
C673        C674   1.414       .  A
C673        H686   1.077       .  S
C674        C680   1.433       .  A
C674        C675   1.423       .  A
C675        C677   1.401       .  A
C675        C676   1.412       .  A
C676        H687   1.084       .  S
C677        C678   1.393       .  A
C677        H688   1.084       .  S
C678        C679   1.401       .  A
C678        H689   1.084       .  S
C679        C680   1.421       .  A
C679        C684   1.409       .  A
C680        C681   1.416       .  A
C681        C682   1.399       .  A
C681        H690   1.077       .  S
C682        C683   1.401       .  A
C682        H691   1.083       .  S
C683        C684   1.406       .  A
C684        H692   1.084       .  S
C693        C694   1.400       .  A
C693        C698   1.402       .  A
C694        C695   1.394       .  A
C694        H707   1.084       .  S
C695        C696   1.413       .  A
C695        H708   1.077       .  S
C696        C702   1.429       .  A
C696        C697   1.423       .  A
C697        C699   1.400       .  A
C697        C698   1.409       .  A
C698        H709   1.084       .  S
C699        C700   1.393       .  A
C699        H710   1.084       .  S
C700        C701   1.401       .  A
C700        H711   1.084       .  S
C701        C702   1.421       .  A
C701        C706   1.407   1_556  A
C702        C703   1.415       .  A
C703        C704   1.396   1_556  A
C703        H712   1.077       .  S
C704        C705   1.399       .  A
C704        H713   1.083       .  S
C705        C706   1.404       .  A
C706        H714   1.084       .  S
C715        C716   1.400       .  A
C715        C720   1.402       .  A
C716        C717   1.396       .  A
C716        H729   1.083       .  S
C717        C718   1.414       .  A
C717        H730   1.077       .  S
C718        C724   1.430       .  A
C718        C719   1.423       .  A
C719        C721   1.400       .  A
C719        C720   1.408       .  A
C720        H731   1.085       .  S
C721        C722   1.391       .  A
C721        H732   1.084       .  S
C722        C723   1.400       .  A
C722        H733   1.084       .  S
C723        C724   1.422       .  A
C723        C728   1.406       .  A
C724        C725   1.415       .  A
C725        C726   1.397       .  A
C725        H734   1.077       .  S
C726        C727   1.400       .  A
C726        H735   1.083       .  S
C727        C728   1.403       .  A
C728        H736   1.084       .  S
C737        C738   1.400       .  A
C737        C742   1.402       .  A
C738        C739   1.398       .  A
C738        H751   1.083       .  S
C739        C740   1.416       .  A
C739        H752   1.077       .  S
C740        C746   1.432       .  A
C740        C741   1.422       .  A
C741        C743   1.400       .  A
C741        C742   1.407       .  A
C742        H753   1.085       .  S
C743        C744   1.391       .  A
C743        H754   1.084       .  S
C744        C745   1.400       .  A
C744        H755   1.084       .  S
C745        C746   1.423       .  A
C745        C750   1.408       .  A
C746        C747   1.414       .  A
C747        C748   1.397       .  A
C747        H756   1.077       .  S
C748        C749   1.402       .  A
C748        H757   1.083       .  S
C749        C750   1.403       .  A
C750        H758   1.084       .  S
C759        C760   1.400       .  A
C759        C764   1.401       .  A
C760        C761   1.402   1_556  A
C760        H773   1.083       .  S
C761        C762   1.418       .  A
C761        H774   1.078       .  S
C762        C768   1.434       .  A
C762        C763   1.423       .  A
C763        C765   1.399       .  A
C763        C764   1.406   1_554  A
C764        H775   1.085       .  S
C765        C766   1.390       .  A
C765        H776   1.084       .  S
C766        C767   1.399       .  A
C766        H777   1.084       .  S
C767        C768   1.423       .  A
C767        C772   1.408       .  A
C768        C769   1.415       .  A
C769        C770   1.400       .  A
C769        H778   1.078       .  S
C770        C771   1.403       .  A
C770        H779   1.083       .  S
C771        C772   1.403       .  A
C772        H780   1.084       .  S
C781        C782   1.402       .  A
C781        C786   1.403       .  A
C782        C783   1.396       .  A
C782        H795   1.083       .  S
C783        C784   1.415       .  A
C783        H796   1.077       .  S
C784        C790   1.430   1_655  A
C784        C785   1.422       .  A
C785        C787   1.400       .  A
C785        C786   1.406       .  A
C786        H797   1.084       .  S
C787        C788   1.390   1_655  A
C787        H798   1.084       .  S
C788        C789   1.399       .  A
C788        H799   1.084       .  S
C789        C790   1.423       .  A
C789        C794   1.407       .  A
C790        C791   1.413       .  A
C791        C792   1.394       .  A
C791        H800   1.077       .  S
C792        C793   1.402       .  A
C792        H801   1.083       .  S
C793        C794   1.402       .  A
C794        H802   1.084       .  S
C803        C804   1.400       .  A
C803        C808   1.402       .  A
C804        C805   1.393       .  A
C804        H817   1.083       .  S
C805        C806   1.413       .  A
C805        H818   1.077       .  S
C806        C812   1.428       .  A
C806        C807   1.423       .  A
C807        C809   1.399       .  A
C807        C808   1.405       .  A
C808        H819   1.084       .  S
C809        C810   1.389       .  A
C809        H820   1.084       .  S
C810        C811   1.400       .  A
C810        H821   1.084       .  S
C811        C812   1.421       .  A
C811        C816   1.402       .  A
C812        C813   1.415       .  A
C813        C814   1.395       .  A
C813        H822   1.077       .  S
C814        C815   1.400       .  A
C814        H823   1.083       .  S
C815        C816   1.403       .  A
C816        H824   1.084       .  S
C825        C826   1.403       .  A
C825        C830   1.403   1_545  A
C826        C827   1.401       .  A
C826        H839   1.083       .  S
C827        C828   1.416       .  A
C827        H840   1.078       .  S
C828        C834   1.434       .  A
C828        C829   1.423   1_545  A
C829        C831   1.400       .  A
C829        C830   1.408       .  A
C830        H841   1.084       .  S
C831        C832   1.390       .  A
C831        H842   1.084       .  S
C832        C833   1.399       .  A
C832        H843   1.084       .  S
C833        C834   1.423   1_565  A
C833        C838   1.408       .  A
C834        C835   1.416       .  A
C835        C836   1.400       .  A
C835        H844   1.077       .  S
C836        C837   1.401       .  A
C836        H845   1.083       .  S
C837        C838   1.401   1_545  A
C838        H846   1.085       .  S
C847        C848   1.402       .  A
C847        C852   1.404   1_545  A
C848        C849   1.400       .  A
C848        H861   1.083       .  S
C849        C850   1.416       .  A
C849        H862   1.078       .  S
C850        C856   1.434       .  A
C850        C851   1.422   1_545  A
C851        C853   1.400       .  A
C851        C852   1.409       .  A
C852        H863   1.085       .  S
C853        C854   1.392       .  A
C853        H864   1.084       .  S
C854        C855   1.400       .  A
C854        H865   1.084       .  S
C855        C856   1.423   1_565  A
C855        C860   1.410       .  A
C856        C857   1.414       .  A
C857        C858   1.398       .  A
C857        H866   1.078       .  S
C858        C859   1.402       .  A
C858        H867   1.083       .  S
C859        C860   1.403   1_545  A
C860        H868   1.085       .  S
C869        C870   1.401       .  A
C869        C874   1.403       .  A
C870        C871   1.391       .  A
C870        H883   1.083       .  S
C871        C872   1.412       .  A
C871        H884   1.077       .  S
C872        C878   1.427       .  A
C872        C873   1.422       .  A
C873        C875   1.400       .  A
C873        C874   1.407       .  A
C874        H885   1.084       .  S
C875        C876   1.392       .  A
C875        H886   1.084       .  S
C876        C877   1.400       .  A
C876        H887   1.084       .  S
C877        C878   1.421       .  A
C877        C882   1.406       .  A
C878        C879   1.414       .  A
C879        C880   1.393       .  A
C879        H888   1.077       .  S
C880        C881   1.400       .  A
C880        H889   1.083       .  S
C881        C882   1.404       .  A
C882        H890   1.084       .  S
C891        C892   1.400       .  A
C891        C896   1.403       .  A
C892        C893   1.397       .  A
C892        H905   1.083       .  S
C893        C894   1.415       .  A
C893        H906   1.077       .  S
C894        C900   1.431       .  A
C894        C895   1.422       .  A
C895        C897   1.400       .  A
C895        C896   1.406       .  A
C896        H907   1.084       .  S
C897        C898   1.391       .  A
C897        H908   1.084       .  S
C898        C899   1.400       .  A
C898        H909   1.084       .  S
C899        C900   1.423       .  A
C899        C904   1.408       .  A
C900        C901   1.414       .  A
C901        C902   1.396       .  A
C901        H910   1.077       .  S
C902        C903   1.400       .  A
C902        H911   1.083       .  S
C903        C904   1.403       .  A
C904        H912   1.084       .  S
C913        C914   1.400       .  A
C913        C918   1.402       .  A
C914        C915   1.399       .  A
C914        H927   1.083       .  S
C915        C916   1.416       .  A
C915        H928   1.077       .  S
C916        C922   1.432       .  A
C916        C917   1.423       .  A
C917        C919   1.400       .  A
C917        C918   1.407       .  A
C918        H929   1.085       .  S
C919        C920   1.390       .  A
C919        H930   1.084       .  S
C920        C921   1.399       .  A
C920        H931   1.084       .  S
C921        C922   1.423       .  A
C921        C926   1.407   1_554  A
C922        C923   1.415       .  A
C923        C924   1.398   1_554  A
C923        H932   1.078       .  S
C924        C925   1.402       .  A
C924        H933   1.083       .  S
C925        C926   1.402       .  A
C926        H934   1.084       .  S
C935        C936   1.401       .  A
C935        C940   1.401       .  A
C936        C937   1.397       .  A
C936        H949   1.083       .  S
C937        C938   1.415       .  A
C937        H950   1.077       .  S
C938        C944   1.430       .  A
C938        C939   1.422       .  A
C939        C941   1.399       .  A
C939        C940   1.403       .  A
C940        H951   1.084       .  S
C941        C942   1.388       .  A
C941        H952   1.084       .  S
C942        C943   1.399       .  A
C942        H953   1.084       .  S
C943        C944   1.422       .  A
C943        C948   1.403       .  A
C944        C945   1.415       .  A
C945        C946   1.397       .  A
C945        H954   1.077       .  S
C946        C947   1.401       .  A
C946        H955   1.083       .  S
C947        C948   1.402       .  A
C948        H956   1.084       .  S
C957        C958   1.401       .  A
C957        C962   1.403       .  A
C958        C959   1.399       .  A
C958        H971   1.083       .  S
C959        C960   1.416       .  A
C959        H972   1.077       .  S
C960        C966   1.433       .  A
C960        C961   1.422       .  A
C961        C963   1.400       .  A
C961        C962   1.407       .  A
C962        H973   1.084       .  S
C963        C964   1.391       .  A
C963        H974   1.084       .  S
C964        C965   1.399       .  A
C964        H975   1.084       .  S
C965        C966   1.423       .  A
C965        C970   1.408   1_556  A
C966        C967   1.415       .  A
C967        C968   1.399   1_556  A
C967        H976   1.078       .  S
C968        C969   1.402       .  A
C968        H977   1.083       .  S
C969        C970   1.402       .  A
C970        H978   1.084       .  S
C979        C980   1.403       .  A
C979        C984   1.403       .  A
C980        C981   1.401       .  A
C980        H993   1.083       .  S
C981        C982   1.415       .  A
C981        H994   1.078       .  S
C982        C988   1.434       .  A
C982        C983   1.423       .  A
C983        C985   1.399       .  A
C983        C984   1.407       .  A
C984        H995   1.084       .  S
C985        C986   1.390       .  A
C985        H996   1.084       .  S
C986        C987   1.400       .  A
C986        H997   1.084       .  S
C987        C988   1.423       .  A
C987        C992   1.407       .  A
C988        C989   1.417       .  A
C989        C990   1.402       .  A
C989        H998   1.078       .  S
C990        C991   1.401       .  A
C990        H999   1.083       .  S
C991        C992   1.402       .  A
C992       H1000   1.085       .  S
C1001      C1002   1.399       .  A
C1001      C1006   1.399       .  A
C1002      C1003   1.395       .  A
C1002      H1015   1.083       .  S
C1003      C1004   1.415       .  A
C1003      H1016   1.077       .  S
C1004      C1010   1.427       .  A
C1004      C1005   1.422       .  A
C1005      C1007   1.398       .  A
C1005      C1006   1.400       .  A
C1006      H1017   1.085       .  S
C1007      C1008   1.387       .  A
C1007      H1018   1.084       .  S
C1008      C1009   1.398       .  A
C1008      H1019   1.084       .  S
C1009      C1010   1.422       .  A
C1009      C1014   1.401       .  A
C1010      C1011   1.414       .  A
C1011      C1012   1.394       .  A
C1011      H1020   1.077       .  S
C1012      C1013   1.400       .  A
C1012      H1021   1.083       .  S
C1013      C1014   1.400       .  A
C1014      H1022   1.084       .  S
C1023      C1024   1.400       .  A
C1023      C1028   1.400       .  A
C1024      C1025   1.398       .  A
C1024      H1037   1.083       .  S
C1025      C1026   1.416       .  A
C1025      H1038   1.077       .  S
C1026      C1032   1.429   1_455  A
C1026      C1027   1.422       .  A
C1027      C1029   1.398       .  A
C1027      C1028   1.400       .  A
C1028      H1039   1.085       .  S
C1029      C1030   1.386   1_455  A
C1029      H1040   1.084       .  S
C1030      C1031   1.398       .  A
C1030      H1041   1.084       .  S
C1031      C1032   1.422       .  A
C1031      C1036   1.400       .  A
C1032      C1033   1.415       .  A
C1033      C1034   1.398       .  A
C1033      H1042   1.077       .  S
C1034      C1035   1.401       .  A
C1034      H1043   1.083       .  S
C1035      C1036   1.400       .  A
C1036      H1044   1.085       .  S
