geometry optimzed in LAMMPS
_audit_creation_date              2020-12-01 
_audit_creation_method            'lammps2cif' 
_symmetry_space_group_name_H-M    'P1' 
_symmetry_Int_Tables_number       1 
_symmetry_cell_setting            triclinic 
loop_ 
_symmetry_equiv_pos_as_xyz 
  x,y,z 
_cell_length_a                    40.05438506 
_cell_length_b                    39.98781182995967 
_cell_length_c                    39.93990818510847 
_cell_angle_alpha                 90.14828344311616 
_cell_angle_beta                  89.68229914316606 
_cell_angle_gamma                 90.10047098336165 
loop_ 
_atom_site_label 
_atom_site_type_symbol 
_atom_site_fract_x 
_atom_site_fract_y 
_atom_site_fract_z 
_atom_site_charge 
O1          O  0.62022810  0.29593761  0.82216641    -0.74900
O2          O  0.63039987  0.32566349  0.91248580    -0.75000
O3          O  0.67020600  0.29310058  0.86837782    -0.75000
O4          O  0.58006070  0.32739380  0.86639957    -0.75100
O5          O  0.56137201  0.27827894  0.88338663    -0.75000
O6          O  0.65042111  0.24476905  0.88802671    -0.75000
O7          O  0.60899024  0.27787608  0.93057602    -0.74900
O8          O  0.60284230  0.24629161  0.84009871    -0.75000
Ni9        Ni  0.62590614  0.31232799  0.86672864     1.25400
Ni10       Ni  0.60524166  0.26011296  0.88617569     1.25400
C11         C  0.61011654  0.26622697  0.81601248     0.87300
C12         C  0.62152472  0.30671589  0.93668585     0.87200
C13         C  0.67494951  0.26313168  0.87882501     0.87200
C14         C  0.55547718  0.30819622  0.87414686     0.87400
O15         O  0.30165690  0.61695606  0.83195130    -0.74900
O16         O  0.33161682  0.62348002  0.92295004    -0.75000
O17         O  0.33976095  0.57833210  0.87131116    -0.75000
O18         O  0.29394811  0.66176754  0.88242265    -0.75100
O19         O  0.24854402  0.63471174  0.90050888    -0.75000
O20         O  0.29381417  0.55106229  0.88750347    -0.75000
O21         O  0.28697013  0.59494490  0.93978725    -0.74900
O22         O  0.25547552  0.59114438  0.84922072    -0.75000
Ni23       Ni  0.31844940  0.62104014  0.87670723     1.25400
Ni24       Ni  0.26967084  0.59193934  0.89502650     1.25400
C25         C  0.27346138  0.60321033  0.82552460     0.87300
C26         C  0.31385188  0.61095580  0.94663740     0.87200
C27         C  0.32370109  0.55097920  0.87585624     0.87200
C28         C  0.26364707  0.66189812  0.89275456     0.87400
O29         O  0.33844913  0.37568607  0.76341233    -0.74900
O30         O  0.42141707  0.36101589  0.80842391    -0.75000
O31         O  0.38160660  0.32433979  0.76821844    -0.75000
O32         O  0.37816895  0.41309162  0.80418408    -0.75100
O33         O  0.34946846  0.39457743  0.84823306    -0.75000
O34         O  0.35458269  0.30519194  0.81328867    -0.75000
O35         O  0.39396102  0.34294438  0.85359929    -0.74900
O36         O  0.31090774  0.35606996  0.80792424    -0.75000
Ni37       Ni  0.38093382  0.36933325  0.78458471     1.25400
Ni38       Ni  0.35133286  0.34912608  0.83248379     1.25400
C39         C  0.31109091  0.36718951  0.77785080     0.87300
C40         C  0.42143516  0.34874938  0.83800869     0.87200
C41         C  0.36837166  0.30025563  0.78468679     0.87200
C42         C  0.36230120  0.41878914  0.83154559     0.87400
O43         O  0.67278144  0.61216725  0.19788972    -0.74900
O44         O  0.58196726  0.61754465  0.16868784    -0.75000
O45         O  0.62275779  0.65692762  0.20544319    -0.75000
O46         O  0.63308819  0.57241447  0.16098818    -0.75100
O47         O  0.61765748  0.54630675  0.20787794    -0.75000
O48         O  0.60436806  0.63094755  0.25137224    -0.75000
O49         O  0.56534886  0.58987010  0.21353704    -0.74900
O50         O  0.65587752  0.58825640  0.24509819    -0.75000
Ni51       Ni  0.62807815  0.61561512  0.18152547     1.25400
Ni52       Ni  0.61007069  0.58780644  0.23102929     1.25400
C53         C  0.67942928  0.60006485  0.22672219     0.87300
C54         C  0.55821842  0.60511214  0.18630465     0.87200
C55         C  0.61246804  0.65773730  0.23584110     0.87200
C56         C  0.62861932  0.54547025  0.17770156     0.87400
O57         O  0.73065542  0.31985224  0.10856248    -0.74900
O58         O  0.69578966  0.40870030  0.11564368    -0.75000
O59         O  0.73535721  0.36956663  0.15391164    -0.75000
O60         O  0.69088272  0.35849478  0.06996216    -0.75100
O61         O  0.64550460  0.34011912  0.09691291    -0.75000
O62         O  0.69080611  0.34849714  0.18021003    -0.75000
O63         O  0.65188015  0.38933718  0.14392956    -0.74900
O64         O  0.68522271  0.29994586  0.13430395    -0.75000
Ni65       Ni  0.71468305  0.36495233  0.11093787     1.25400
Ni66       Ni  0.66660795  0.34387143  0.13959885     1.25400
C67         C  0.71413709  0.29544752  0.12116086     0.87300
C68         C  0.66892303  0.41393045  0.13235998     0.87200
C69         C  0.72060717  0.35997672  0.18077430     0.87200
C70         C  0.66115537  0.34666316  0.06968415     0.87400
O71         O  0.37568964  0.70304788  0.17902660    -0.74900
O72         O  0.36715671  0.66876402  0.08918589    -0.75000
O73         O  0.32797587  0.70465939  0.13159721    -0.75000
O74         O  0.41601041  0.66742785  0.13795307    -0.75100
O75         O  0.39456798  0.61980206  0.15711033    -0.75000
O76         O  0.30634889  0.65764718  0.15121828    -0.75000
O77         O  0.34502336  0.62169540  0.10925765    -0.74900
O78         O  0.35495944  0.65556671  0.19912575    -0.75000
Ni79       Ni  0.37259975  0.68748853  0.13359872     1.25400
Ni80       Ni  0.34957954  0.63693017  0.15485347     1.25400
C81         C  0.36665659  0.68505258  0.20400680     0.87300
C82         C  0.35294095  0.64034690  0.08438082     0.87200
C83         C  0.30236700  0.68743761  0.14006703     0.87200
C84         C  0.42005182  0.63805372  0.15006554     0.87400
O85         O  0.65408667  0.21792323  0.61237344    -0.74900
O86         O  0.56304492  0.18799967  0.61449250    -0.75000
O87         O  0.60181637  0.22604421  0.65514259    -0.75000
O88         O  0.61583559  0.17997005  0.57186558    -0.75100
O89         O  0.63067385  0.13403537  0.59959618    -0.75000
O90         O  0.61779421  0.18034844  0.68270400    -0.75000
O91         O  0.57834269  0.14295971  0.64309103    -0.74900
O92         O  0.66970768  0.17191338  0.63942697    -0.75000
Ni93       Ni  0.60804927  0.20456481  0.61245783     1.25400
Ni94       Ni  0.62458662  0.15563716  0.64214639     1.25400
C95         C  0.67697911  0.19969615  0.62515137     0.87300
C96         C  0.55545037  0.16103094  0.63003937     0.87200
C97         C  0.60790496  0.21076169  0.68259371     0.87200
C98         C  0.62658519  0.14980308  0.57205742     0.87400
O99         O  0.68270827  0.11117080  0.32495960    -0.74900
O100        O  0.65161162  0.11995533  0.41520974    -0.75000
O101        O  0.68919697  0.15821740  0.37358793    -0.75000
O102        O  0.64560696  0.07262253  0.36558908    -0.75100
O103        O  0.69244136  0.04761082  0.38199692    -0.75000
O104        O  0.73450451  0.13326285  0.39389228    -0.75000
O105        O  0.69604281  0.09261915  0.43322219    -0.74900
O106        O  0.72985910  0.08867344  0.34307528    -0.75000
Ni107      Ni  0.66557386  0.11636672  0.36937054     1.25400
Ni108      Ni  0.71478594  0.08961213  0.38884657     1.25400
C109        C  0.71155846  0.09885689  0.31891419     0.87300
C110        C  0.66858329  0.10791616  0.43940422     0.87200
C111        C  0.71920896  0.15971218  0.38453943     0.87200
C112        C  0.66254174  0.04598025  0.37090328     0.87400
O113        O  0.38355146  0.14585215  0.74021658    -0.74900
O114        O  0.38213835  0.05657466  0.70617791    -0.75000
O115        O  0.42360676  0.10996610  0.69921287    -0.75000
O116        O  0.34179182  0.09303425  0.74692463    -0.75100
O117        O  0.31303086  0.11096139  0.70282274    -0.75000
O118        O  0.39465595  0.12638478  0.65462589    -0.75000
O119        O  0.35185392  0.07297914  0.66279064    -0.74900
O120        O  0.35527631  0.16342827  0.69565126    -0.75000
Ni121      Ni  0.38386975  0.10068355  0.72459483     1.25400
Ni122      Ni  0.35279472  0.11898392  0.67724927     1.25400
C123        C  0.36956842  0.16929868  0.72373225     0.87300
C124        C  0.36529226  0.04954913  0.67997754     0.87200
C125        C  0.42254591  0.12177878  0.66944193     0.87200
C126        C  0.31391910  0.09974280  0.73279145     0.87400
O127        O  0.29909340  0.80239797  0.64469123    -0.74900
O128        O  0.34131811  0.88801011  0.65383388    -0.75000
O129        O  0.30244208  0.84914462  0.69369438    -0.75000
O130        O  0.33749413  0.84064358  0.60425622    -0.75100
O131        O  0.29311667  0.86744210  0.58503083    -0.75000
O132        O  0.25609548  0.87176235  0.67346388    -0.75000
O133        O  0.29502854  0.91273490  0.63548664    -0.74900
O134        O  0.25395206  0.82682706  0.62329374    -0.75000
Ni135      Ni  0.32182485  0.84427736  0.64977593     1.25400
Ni136      Ni  0.27303199  0.87064947  0.62852775     1.25400
C137        C  0.26952920  0.80059496  0.63279501     0.87300
C138        C  0.32472222  0.91448993  0.64708193     0.87200
C139        C  0.27296511  0.86085068  0.69827367     0.87200
C140        C  0.32060163  0.85201042  0.57960927     0.87400
O141        O  0.62689134  0.79641910  0.32297105    -0.74900
O142        O  0.63370758  0.88748048  0.35311847    -0.75000
O143        O  0.58812208  0.83644289  0.36106613    -0.75000
O144        O  0.67219452  0.84647321  0.31569450    -0.75100
O145        O  0.64611062  0.86466479  0.27001600    -0.75000
O146        O  0.56165863  0.85236779  0.31477652    -0.75000
O147        O  0.60579454  0.90414657  0.30827789    -0.74900
O148        O  0.60208570  0.81371975  0.27645276    -0.75000
Ni149      Ni  0.63107885  0.84122584  0.33993075     1.25400
Ni150      Ni  0.60289549  0.85945946  0.29083799     1.25400
C151        C  0.61370338  0.79004213  0.29447236     0.87300
C152        C  0.62173374  0.91108886  0.33513360     0.87200
C153        C  0.56106703  0.84118143  0.34483470     0.87200
C154        C  0.67299644  0.85693046  0.28543843     0.87400
O155        O  0.31332622  0.79037756  0.38192296    -0.74900
O156        O  0.40430592  0.81864845  0.37149676    -0.75000
O157        O  0.36149483  0.78122643  0.33455551    -0.75000
O158        O  0.35540011  0.82773272  0.41871730    -0.75100
O159        O  0.37145500  0.78150147  0.44522380    -0.75000
O160        O  0.37916101  0.73554274  0.36098536    -0.75000
O161        O  0.42105040  0.77350881  0.39912189    -0.74900
O162        O  0.33013639  0.74425168  0.40705290    -0.75000
Ni163      Ni  0.35817165  0.80616361  0.37571432     1.25400
Ni164      Ni  0.37620425  0.75711947  0.40401040     1.25400
C165        C  0.30637682  0.76277928  0.39665031     0.87300
C166        C  0.42781701  0.80064238  0.38346741     0.87200
C167        C  0.37085784  0.75059916  0.33401326     0.87200
C168        C  0.36088671  0.81170669  0.44587922     0.87400
O169        O  0.17093635  0.77936669  0.14258437    -0.74900
O170        O  0.08787514  0.82604068  0.15330604    -0.75000
O171        O  0.12589794  0.78601005  0.19231264    -0.75000
O172        O  0.13388161  0.81924089  0.10297769    -0.75100
O173        O  0.10517745  0.77546699  0.08421731    -0.75000
O174        O  0.09946137  0.74070523  0.17322054    -0.75000
O175        O  0.06054741  0.78088012  0.13531060    -0.74900
O176        O  0.14381396  0.73485362  0.12268111    -0.75000
Ni177      Ni  0.13049431  0.80435401  0.14838439     1.25400
Ni178      Ni  0.10118911  0.75646568  0.12806226     1.25400
C179        C  0.17099390  0.74923515  0.13158133     0.87300
C180        C  0.06044120  0.81076621  0.14696939     0.87200
C181        C  0.11243811  0.75738930  0.19727360     0.87200
C182        C  0.12144027  0.80252824  0.07866765     0.87400
O183        O  0.81188793  0.84537805  0.19785835    -0.74900
O184        O  0.90226005  0.84035436  0.16504362    -0.75000
O185        O  0.86282187  0.80074061  0.20297428    -0.75000
O186        O  0.85064742  0.88525719  0.15940720    -0.75100
O187        O  0.86687132  0.91155710  0.20588352    -0.75000
O188        O  0.88213519  0.82691377  0.24833115    -0.75000
O189        O  0.91930594  0.86859582  0.20952181    -0.74900
O190        O  0.82996269  0.86964808  0.24449088    -0.75000
Ni191      Ni  0.85634203  0.84207222  0.17959986     1.25400
Ni192      Ni  0.87528012  0.87017040  0.22859819     1.25400
C193        C  0.80597056  0.85796584  0.22686266     0.87300
C194        C  0.92608456  0.85299274  0.18231314     0.87200
C195        C  0.87442767  0.79995659  0.23276758     0.87200
C196        C  0.85558317  0.91229177  0.17594850     0.87400
O197        O  0.17502425  0.79959727  0.87908209    -0.74900
O198        O  0.14557477  0.89063961  0.87183905    -0.75000
O199        O  0.18049454  0.84831908  0.83216345    -0.75000
O200        O  0.13964160  0.84064471  0.91887141    -0.75100
O201        O  0.18734837  0.85658938  0.94270301    -0.75000
O202        O  0.22721428  0.86737892  0.85573420    -0.75000
O203        O  0.19140874  0.90770306  0.89761029    -0.74900
O204        O  0.22287827  0.81732236  0.90072814    -0.75000
Ni205      Ni  0.15840815  0.84435275  0.87469971     1.25400
Ni206      Ni  0.20880642  0.86303808  0.90007573     1.25400
C207        C  0.20397772  0.79336933  0.89102378     0.87300
C208        C  0.16391867  0.91451825  0.88293976     0.87200
C209        C  0.21065312  0.85869831  0.82975591     0.87200
C210        C  0.15744287  0.84536983  0.94499790     0.87400
O211        O  0.17611998  0.11348687  0.82178948    -0.74900
O212        O  0.08733376  0.12627171  0.85563341    -0.75000
O213        O  0.13458166  0.07626923  0.85951466    -0.75000
O214        O  0.12940813  0.16253428  0.81684550    -0.75100
O215        O  0.10930147  0.13853602  0.77092868    -0.75000
O216        O  0.11471019  0.05247871  0.81323293    -0.75000
O217        O  0.06668258  0.10216511  0.80979727    -0.74900
O218        O  0.15652226  0.09051030  0.77548178    -0.75000
Ni219      Ni  0.13243165  0.12039310  0.84012290     1.25400
Ni220      Ni  0.11089253  0.09493294  0.79086091     1.25400
C221        C  0.18145171  0.10021981  0.79312110     0.87300
C222        C  0.06232662  0.11767235  0.83775014     0.87200
C223        C  0.12724820  0.04994714  0.84257079     0.87200
C224        C  0.11887172  0.16477842  0.78660295     0.87400
O225        O  0.79810029  0.10944453  0.18434294    -0.74900
O226        O  0.84203637  0.11954893  0.09928610    -0.75000
O227        O  0.80441580  0.15967915  0.13931546    -0.75000
O228        O  0.83559690  0.06919168  0.14530700    -0.75100
O229        O  0.79070205  0.05162946  0.11790284    -0.75000
O230        O  0.75806186  0.14154493  0.11434023    -0.75000
O231        O  0.79557134  0.10317828  0.07360352    -0.74900
O232        O  0.75252597  0.09058900  0.15844900    -0.75000
Ni233      Ni  0.82179129  0.11505067  0.14288034     1.25400
Ni234      Ni  0.77268007  0.09599804  0.11511815     1.25400
C235        C  0.76804228  0.09846056  0.18527903     0.87300
C236        C  0.82552308  0.11433143  0.07233764     0.87200
C237        C  0.77587356  0.16537499  0.12619326     0.87200
C238        C  0.81779946  0.04528035  0.13355396     0.87400
O239        O  0.81233546  0.17320799  0.87229776    -0.74900
O240        O  0.90247193  0.14108511  0.86293225    -0.75000
O241        O  0.85466690  0.13901222  0.91240691    -0.75000
O242        O  0.85978159  0.17528097  0.82363481    -0.75100
O243        O  0.87935635  0.22322565  0.84457856    -0.75000
O244        O  0.87318054  0.18681870  0.93280898    -0.75000
O245        O  0.92133027  0.18873731  0.88460847    -0.74900
O246        O  0.83146736  0.22151403  0.89216390    -0.75000
Ni247      Ni  0.85668470  0.15534764  0.86718213     1.25400
Ni248      Ni  0.87705035  0.20666615  0.88939728     1.25400
C249        C  0.80701346  0.20307961  0.88276315     0.87300
C250        C  0.92690950  0.16003600  0.87136723     0.87200
C251        C  0.86248713  0.15707173  0.93770345     0.87200
C252        C  0.87022502  0.20531074  0.81966818     0.87400
O253        O  0.23538060  0.59056232  0.66470298    -0.74900
O254        O  0.19403185  0.60597884  0.57944147    -0.75000
O255        O  0.23168555  0.64241816  0.62228178    -0.75000
O256        O  0.19748570  0.55288750  0.62193362    -0.75100
O257        O  0.15253902  0.56959781  0.64997304    -0.75000
O258        O  0.18456759  0.66042940  0.64540764    -0.75000
O259        O  0.14704823  0.62139005  0.60544897    -0.74900
O260        O  0.18962965  0.61000686  0.69019062    -0.75000
Ni261      Ni  0.21619300  0.59715219  0.62112455     1.25400
Ni262      Ni  0.16671658  0.61580855  0.64866060     1.25400
C263        C  0.21967433  0.59927672  0.69136351     0.87300
C264        C  0.16408346  0.61718381  0.57859648     0.87200
C265        C  0.21376196  0.66646105  0.63346631     0.87200
C266        C  0.16988191  0.54597923  0.63672947     0.87400
O267        O  0.15465608  0.36797607  0.73484453    -0.74900
O268        O  0.06574674  0.36161569  0.70075628    -0.75000
O269        O  0.10563038  0.32147393  0.73839409    -0.75000
O270        O  0.11574670  0.40806832  0.69736638    -0.75100
O271        O  0.13381019  0.38376338  0.65038646    -0.75000
O272        O  0.12664799  0.29761241  0.69238452    -0.75000
O273        O  0.08470226  0.33554099  0.65533090    -0.74900
O274        O  0.17457455  0.34604423  0.68799535    -0.75000
Ni275      Ni  0.10958925  0.36563758  0.71937802     1.25400
Ni276      Ni  0.13047583  0.33987838  0.66978672     1.25400
C277        C  0.17966165  0.35913231  0.71688372     0.87300
C278        C  0.06016830  0.34634362  0.67313217     0.87200
C279        C  0.11538410  0.29539121  0.72237042     0.87200
C280        C  0.12787278  0.41016996  0.66764896     0.87400
O281        O  0.14527011  0.72279254  0.40486598    -0.74900
O282        O  0.06153528  0.67936085  0.38876327    -0.75000
O283        O  0.10349611  0.68460138  0.44197317    -0.75000
O284        O  0.10302894  0.71768633  0.35251142    -0.75100
O285        O  0.12877756  0.67138516  0.33472336    -0.75000
O286        O  0.13166900  0.63953599  0.42504534    -0.75000
O287        O  0.08823541  0.63302531  0.37324141    -0.74900
O288        O  0.17193674  0.67745747  0.38623438    -0.75000
Ni289      Ni  0.10231827  0.70265565  0.39773182     1.25400
Ni290      Ni  0.13103903  0.65362337  0.37923269     1.25400
C291        C  0.17242631  0.70742896  0.39763452     0.87300
C292        C  0.06103453  0.64926212  0.37770113     0.87200
C293        C  0.11903781  0.65748648  0.44850246     0.87200
C294        C  0.11557494  0.69994495  0.32896336     0.87400
O295        O  0.83734163  0.23668707  0.61061777    -0.74900
O296        O  0.92392923  0.27681320  0.62218076    -0.75000
O297        O  0.88156279  0.24056216  0.66110536    -0.75000
O298        O  0.87902174  0.27383743  0.57111004    -0.75100
O299        O  0.85288123  0.31906259  0.58919327    -0.75000
O300        O  0.86034886  0.28852257  0.67934017    -0.75000
O301        O  0.89998136  0.32444796  0.63859100    -0.74900
O302        O  0.81363866  0.28288432  0.63112082    -0.75000
Ni303      Ni  0.88139096  0.25537258  0.61543437     1.25400
Ni304      Ni  0.85590123  0.30546853  0.63501250     1.25400
C305        C  0.81138137  0.25278017  0.62026280     0.87300
C306        C  0.92620182  0.30680635  0.63333155     0.87200
C307        C  0.87149561  0.25922499  0.68527162     0.87200
C308        C  0.86455029  0.30171831  0.56491996     0.87400
O309        O  0.81710170  0.61309691  0.31047932    -0.74900
O310        O  0.90369329  0.61374361  0.35025222    -0.75000
O311        O  0.86609609  0.65947654  0.31781006    -0.75000
O312        O  0.85456512  0.56733962  0.34257111    -0.75100
O313        O  0.87927080  0.55169865  0.29510840    -0.75000
O314        O  0.88672376  0.64367396  0.26841961    -0.75000
O315        O  0.92655904  0.60055017  0.30155110    -0.74900
O316        O  0.83945991  0.59569031  0.26219077    -0.75000
Ni317      Ni  0.85963937  0.61395913  0.33201738     1.25400
Ni318      Ni  0.88387293  0.59724582  0.28011895     1.25400
C319        C  0.81400736  0.60395635  0.27992786     0.87300
C320        C  0.92978574  0.60825759  0.33249782     0.87200
C321        C  0.87751069  0.66681276  0.28866974     0.87200
C322        C  0.86483979  0.54416506  0.32283311     0.87400
O323        O  0.81127307  0.34087790  0.31576230    -0.74900
O324        O  0.84919646  0.33495720  0.40329983    -0.75000
O325        O  0.81169130  0.29392852  0.36497254    -0.75000
O326        O  0.84885952  0.38190562  0.35301048    -0.75100
O327        O  0.80263858  0.40401437  0.37507184    -0.75000
O328        O  0.76535547  0.31577783  0.38690126    -0.75000
O329        O  0.80271079  0.35644028  0.42526010    -0.74900
O330        O  0.76511883  0.36206135  0.33757963    -0.75000
Ni331      Ni  0.83195626  0.33717347  0.35863368     1.25400
Ni332      Ni  0.78243411  0.36053373  0.38208278     1.25400
C333        C  0.78198605  0.35289410  0.31189210     0.87300
C334        C  0.83141102  0.34285316  0.42888292     0.87200
C335        C  0.78239173  0.29026682  0.37758937     0.87200
C336        C  0.83113582  0.40749340  0.36055359     0.87400
C337        C  0.84904738  0.48467738  0.30743053    -0.02300
C338        C  0.85912332  0.50828925  0.33195846     0.07300
C339        C  0.86264743  0.49747436  0.36553433    -0.02500
C340        C  0.85482080  0.46421263  0.37455976    -0.02500
C341        C  0.84280781  0.44146786  0.35056551     0.12300
C342        C  0.84113527  0.45152307  0.31675474    -0.02700
Br343      Br  0.82778348  0.41987942  0.28285230    -0.01200
Br344      Br  0.84393198  0.49749091  0.26103659    -0.01300
Br345      Br  0.86278569  0.44890525  0.41937995    -0.01200
Br346      Br  0.87964705  0.52748361  0.39939070    -0.01200
C347        C  0.84936146  0.34680972  0.52259551    -0.02300
C348        C  0.85991910  0.31342397  0.52934756     0.07300
C349        C  0.86348762  0.29098436  0.50178121    -0.02500
C350        C  0.85479125  0.30104630  0.46912109    -0.02500
C351        C  0.84299427  0.33373730  0.46300975     0.07500
C352        C  0.84013327  0.35637379  0.48993121    -0.02700
Br353      Br  0.82297787  0.40085560  0.48240194    -0.01200
Br354      Br  0.84844433  0.38114510  0.55693507    -0.01300
Br355      Br  0.85569401  0.26825020  0.43326135    -0.01200
Br356      Br  0.87942714  0.24554644  0.50704715    -0.01200
C357        C  0.96832301  0.62899223  0.37900689    -0.02300
C358        C  0.96398557  0.61290968  0.34738112     0.07300
C359        C  0.99310050  0.60389161  0.32884677    -0.02500
C360        C  0.02484707  0.61531547  0.33891680    -0.02500
C361        C  0.02849139  0.63371891  0.36891478     0.07500
C362        C  0.00037144  0.63896798  0.38960961    -0.02700
Br363      Br  0.00582079  0.65955861  0.43323613    -0.01200
Br364      Br  0.93143129  0.63826922  0.40923397    -0.01300
Br365      Br  0.06276437  0.60785038  0.30951544    -0.01200
Br366      Br  0.99104453  0.57456215  0.29019420    -0.01200
C367        C  0.96752332  0.32292880  0.67709536    -0.02300
C368        C  0.95944164  0.32014687  0.64291496     0.07300
C369        C  0.98361848  0.32837422  0.61857518    -0.02500
C370        C  0.01586661  0.33899199  0.62833515    -0.02500
C371        C  0.02485786  0.33966121  0.66265162     0.07500
C372        C  0.00000361  0.33208998  0.68702908    -0.02700
Br373      Br  0.00985911  0.33188856  0.73445932    -0.01200
Br374      Br  0.93434387  0.31241337  0.71074482    -0.01300
Br375      Br  0.04663104  0.35473099  0.59448404    -0.01200
Br376      Br  0.97219604  0.32530070  0.57181145    -0.01200
C377        C  0.15164315  0.66150402  0.53689178    -0.02300
C378        C  0.14967542  0.62763459  0.54640305     0.07300
C379        C  0.13367949  0.60440099  0.52537578    -0.02500
C380        C  0.12063151  0.61486408  0.49442032    -0.02500
C381        C  0.12519362  0.64815215  0.48368586     0.07500
C382        C  0.13969131  0.67177900  0.50559117    -0.02700
Br383      Br  0.14505183  0.71811946  0.49259183    -0.01200
Br384      Br  0.17181631  0.69402549  0.56612705    -0.01300
Br385      Br  0.09438729  0.58445618  0.46778444    -0.01200
Br386      Br  0.13034756  0.55826731  0.53879154    -0.01200
C387        C  0.18223480  0.48366743  0.64148238    -0.02300
C388        C  0.15858445  0.51014026  0.63970397     0.07300
C389        C  0.12411281  0.50194133  0.64227638    -0.02500
C390        C  0.11389629  0.46900161  0.65026847    -0.02500
C391        C  0.13767209  0.44351893  0.65433409     0.07500
C392        C  0.17165348  0.45063376  0.64818441    -0.02700
Br393      Br  0.20434907  0.41518661  0.65044972    -0.01200
Br394      Br  0.22975815  0.49155495  0.63681034    -0.01300
Br395      Br  0.06710834  0.45805406  0.65437450    -0.01200
Br396      Br  0.09025456  0.53485244  0.63282096    -0.01200
C397        C  0.89485869  0.20830450  0.76234092    -0.02300
C398        C  0.87131481  0.21977235  0.78587185     0.07300
C399        C  0.84891913  0.24533001  0.77731829    -0.02500
C400        C  0.84882731  0.25841588  0.74465216    -0.02500
C401        C  0.87230287  0.24669049  0.72042760     0.07500
C402        C  0.89615075  0.22236133  0.73009530    -0.02700
Br403      Br  0.93259278  0.20951881  0.70079362    -0.01200
Br404      Br  0.92595453  0.17367577  0.77474145    -0.01300
Br405      Br  0.81485918  0.29115012  0.73402562    -0.01200
Br406      Br  0.81738524  0.26165269  0.81034632    -0.01200
C407        C  0.85473059  0.15467043  0.03395629    -0.02300
C408        C  0.84014831  0.12297464  0.03913205     0.07300
C409        C  0.83657185  0.10099257  0.01176668    -0.02500
C410        C  0.84603702  0.11098457  0.97914975    -0.02500
C411        C  0.85779902  0.14417479  0.97303115     0.07500
C412        C  0.86313992  0.16547495  0.00133719    -0.02700
Br413      Br  0.88113485  0.21040919  0.99743068    -0.01200
Br414      Br  0.86105204  0.18488710  0.07145733    -0.01300
Br415      Br  0.84290630  0.07760686  0.94403095    -0.01200
Br416      Br  0.81887391  0.05648313  0.01915392    -0.01200
C417        C  0.09100099  0.20683741  0.74803397    -0.02300
C418        C  0.11774098  0.19815244  0.76961634     0.07300
C419        C  0.14359611  0.22179593  0.77490034    -0.02500
C420        C  0.14211704  0.25372649  0.76010223    -0.02500
C421        C  0.11534709  0.26236177  0.73918215     0.07500
C422        C  0.08991923  0.23882216  0.73302246    -0.02700
Br423      Br  0.05330997  0.25080558  0.70422302    -0.01200
Br424      Br  0.05499858  0.17580643  0.73911736    -0.01300
Br425      Br  0.17752754  0.28563044  0.76773242    -0.01200
Br426      Br  0.18295019  0.21006812  0.79992659    -0.01200
C427        C  0.00550078  0.10596111  0.86329729    -0.02300
C428        C  0.02820151  0.12840331  0.84834789     0.07300
C429        C  0.01848194  0.16198844  0.84394287    -0.02500
C430        C  0.98559882  0.17229587  0.85136868    -0.02500
C431        C  0.96206887  0.14927054  0.86460051     0.07500
C432        C  0.97247900  0.11605988  0.87093512    -0.02700
Br433      Br  0.94225437  0.08449025  0.89160629    -0.01200
Br434      Br  0.02074210  0.06255291  0.87662894    -0.01300
Br435      Br  0.97297966  0.21784899  0.84121573    -0.01200
Br436      Br  0.05066893  0.19464631  0.82902221    -0.01200
C437        C  0.17836709  0.97620994  0.87450782    -0.02300
C438        C  0.15396520  0.95034737  0.87698793     0.07300
C439        C  0.12017538  0.95862395  0.87044050    -0.02500
C440        C  0.11164828  0.99052805  0.85806014    -0.02500
C441        C  0.13576935  0.01616322  0.85595534     0.07500
C442        C  0.16910719  0.00883741  0.86462991    -0.02700
Br443      Br  0.20330567  0.04268876  0.85934131    -0.01200
Br444      Br  0.22527849  0.96794901  0.88263885    -0.01300
Br445      Br  0.06697134  0.99821149  0.84242435    -0.01200
Br446      Br  0.08444835  0.92752804  0.88047012    -0.01200
C447        C  0.90464739  0.74611942  0.24311695    -0.02300
C448        C  0.87745820  0.76740885  0.24982745     0.07300
C449        C  0.85187385  0.75687027  0.27163674    -0.02500
C450        C  0.85176290  0.72408667  0.28437512    -0.02500
C451        C  0.87884322  0.70233038  0.27754721     0.07500
C452        C  0.90607843  0.71422560  0.25810904    -0.02700
Br453      Br  0.94628612  0.68795214  0.25346926    -0.01200
Br454      Br  0.93963810  0.76062700  0.21300749    -0.01300
Br455      Br  0.81270029  0.70877230  0.30850853    -0.01200
Br456      Br  0.81637391  0.78732428  0.28341377    -0.01200
C457        C  0.87107846  0.96891137  0.15387126    -0.02300
C458        C  0.84643956  0.94485209  0.16110874     0.07300
C459        C  0.81253422  0.95270122  0.15638858    -0.02500
C460        C  0.80305529  0.98527904  0.14706160    -0.02500
C461        C  0.82772847  0.00987013  0.14001038     0.07500
C462        C  0.86189636  0.00086775  0.14218573    -0.02700
Br463      Br  0.89655998  0.03141027  0.12794265    -0.01200
Br464      Br  0.91752274  0.95780190  0.16000849    -0.01300
Br465      Br  0.75595268  0.99607523  0.14758039    -0.01200
Br466      Br  0.77868764  0.91916142  0.16462783    -0.01200
C467        C  0.08313230  0.73221803  0.24654896    -0.02300
C468        C  0.11303344  0.74280961  0.23105089     0.07300
C469        C  0.14385132  0.73853412  0.24755157    -0.02500
C470        C  0.14479162  0.72272757  0.27889145    -0.02500
C471        C  0.11483883  0.71309174  0.29473225     0.07500
C472        C  0.08398467  0.71820968  0.27877161    -0.02700
Br473      Br  0.04285287  0.70593161  0.30106086    -0.01200
Br474      Br  0.04081426  0.73820938  0.22441484    -0.01300
Br475      Br  0.18712216  0.71510792  0.30052030    -0.01200
Br476      Br  0.18508279  0.75395712  0.22743763    -0.01200
C477        C  0.12878518  0.84842624  0.03578275    -0.02300
C478        C  0.12727079  0.81387186  0.04363325     0.07300
C479        C  0.13340705  0.79008517  0.01797526    -0.02500
C480        C  0.14070015  0.80076848  0.98521810    -0.02500
C481        C  0.14443162  0.83509795  0.97811831     0.07500
C482        C  0.13833479  0.85887557  0.00339053    -0.02700
Br483      Br  0.14264466  0.90582588  0.99321315    -0.01200
Br484      Br  0.11668848  0.88187904  0.06863427    -0.01300
Br485      Br  0.14694366  0.76781290  0.95036107    -0.01200
Br486      Br  0.13536303  0.74261710  0.02744592    -0.01200
C487        C  0.02065979  0.83802524  0.18726156    -0.02300
C488        C  0.02792808  0.82702423  0.15451750     0.07300
C489        C  0.00317545  0.82911079  0.12976476    -0.02500
C490        C  0.97038312  0.83921803  0.13818894    -0.02500
C491        C  0.96194455  0.84772343  0.17183822     0.07500
C492        C  0.98810639  0.84853872  0.19597216    -0.02700
Br493      Br  0.98067846  0.86218479  0.24200303    -0.01200
Br494      Br  0.05499278  0.83656400  0.22116056    -0.01300
Br495      Br  0.93800088  0.84182832  0.10254966    -0.01200
Br496      Br  0.01497288  0.81926000  0.08378403    -0.01200
C497        C  0.24377276  0.76876839  0.38504796    -0.02300
C498        C  0.27058841  0.75185425  0.40114155     0.07300
C499        C  0.26267182  0.72355648  0.42134336    -0.02500
C500        C  0.23062080  0.70904438  0.42004713    -0.02500
C501        C  0.20501940  0.72445677  0.40175224     0.07500
C502        C  0.21110186  0.75551025  0.38629962    -0.02700
Br503      Br  0.17472116  0.77958257  0.36569044    -0.01200
Br504      Br  0.24985728  0.81038635  0.36101947    -0.01300
Br505      Br  0.22138565  0.66834710  0.44456792    -0.01200
Br506      Br  0.29369889  0.70577656  0.45376844    -0.01200
C507        C  0.72788212  0.88526857  0.27541482    -0.02300
C508        C  0.70560856  0.85907639  0.26807156     0.07300
C509        C  0.71551556  0.83333832  0.24613631    -0.02500
C510        C  0.74833333  0.83247384  0.23322675    -0.02500
C511        C  0.77104069  0.85882793  0.24035049     0.07500
C512        C  0.76011678  0.88573913  0.26096801    -0.02700
Br513      Br  0.78816724  0.92434671  0.26883762    -0.01200
Br514      Br  0.71385511  0.92072124  0.30523643    -0.01300
Br515      Br  0.76217101  0.79321542  0.20843507    -0.01200
Br516      Br  0.68404030  0.79869854  0.23434344    -0.01200
C517        C  0.50505959  0.85510672  0.36977433    -0.02300
C518        C  0.52871930  0.83107399  0.35982451     0.07300
C519        C  0.52056947  0.79683704  0.36179574    -0.02500
C520        C  0.48782340  0.78671235  0.36988303    -0.02500
C521        C  0.46325711  0.81088951  0.37808129     0.07500
C522        C  0.47262937  0.84507009  0.37956384    -0.02700
Br523      Br  0.44184789  0.87822421  0.39655304    -0.01200
Br524      Br  0.51777145  0.90163100  0.37107491    -0.01300
Br525      Br  0.47685863  0.73965037  0.36684636    -0.01200
Br526      Br  0.55424088  0.76348655  0.35286057    -0.01200
C527        C  0.23633623  0.88735360  0.74285055    -0.02300
C528        C  0.25773191  0.86095324  0.73247521     0.07300
C529        C  0.26310257  0.83373363  0.75453484    -0.02500
C530        C  0.24794921  0.83341735  0.78645091    -0.02500
C531        C  0.22687019  0.85972696  0.79651226     0.07500
C532        C  0.22067568  0.88638108  0.77455792    -0.02700
Br533      Br  0.19037765  0.92147706  0.78815161    -0.01200
Br534      Br  0.22891909  0.92583697  0.71468328    -0.01300
Br535      Br  0.25484644  0.79602194  0.81610722    -0.01200
Br536      Br  0.28899757  0.79517027  0.74088173    -0.01200
C537        C  0.22815183  0.75906361  0.65417185    -0.02300
C538        C  0.25312929  0.76761133  0.63085795     0.07300
C539        C  0.26423579  0.74386943  0.60741577    -0.02500
C540        C  0.25122783  0.71109612  0.60778704    -0.02500
C541        C  0.22701256  0.70157745  0.63230759     0.07500
C542        C  0.21567135  0.72611220  0.65559137    -0.02700
Br543      Br  0.18523110  0.71513948  0.69176215    -0.01200
Br544      Br  0.21149225  0.79270061  0.68477868    -0.01300
Br545      Br  0.26677849  0.68052450  0.57342743    -0.01200
Br546      Br  0.29665190  0.75707608  0.57387952    -0.01200
C547        C  0.37599944  0.83182656  0.50355230    -0.02300
C548        C  0.35189523  0.82693596  0.47852441     0.07300
C549        C  0.31804244  0.83315609  0.48578871    -0.02500
C550        C  0.30783298  0.84140930  0.51853938    -0.02500
C551        C  0.33184094  0.84572982  0.54430038     0.07500
C552        C  0.36621939  0.84199980  0.53608681    -0.02700
Br553      Br  0.40055033  0.85162254  0.56852261    -0.01200
Br554      Br  0.42255676  0.82512832  0.49272182    -0.01300
Br555      Br  0.26023871  0.84313264  0.52745236    -0.01200
Br556      Br  0.28489264  0.82836855  0.45113024    -0.01200
C557        C  0.24357067  0.11557099  0.79464871    -0.02300
C558        C  0.21682207  0.09675515  0.78022486     0.07300
C559        C  0.22450681  0.07495210  0.75297388    -0.02500
C560        C  0.25668445  0.07507657  0.73831390    -0.02500
C561        C  0.28202871  0.09564533  0.75130175     0.07500
C562        C  0.27590651  0.11445874  0.78044267    -0.02700
Br563      Br  0.31189814  0.14004645  0.80022238    -0.01200
Br564      Br  0.23767988  0.14429415  0.83335259    -0.01300
Br565      Br  0.26685341  0.04594141  0.70089465    -0.01200
Br566      Br  0.19241009  0.04303226  0.73597069    -0.01200
C567        C  0.35594010  0.00374966  0.63705860    -0.02300
C568        C  0.35934441  0.01375028  0.67095041     0.07300
C569        C  0.35420661  0.98960062  0.69656962    -0.02500
C570        C  0.34433023  0.95680155  0.68833776    -0.02500
C571        C  0.33911789  0.94767342  0.65473796     0.07500
C572        C  0.34546696  0.97095362  0.62909952    -0.02700
Br573      Br  0.34009141  0.95752288  0.58298499    -0.01200
Br574      Br  0.36668377  0.03423225  0.60112996    -0.01300
Br575      Br  0.33535911  0.92481208  0.72354565    -0.01200
Br576      Br  0.35780031  0.00093026  0.74359487    -0.01200
C577        C  0.76848962  0.23424340  0.35272598    -0.02300
C578        C  0.76773435  0.25612376  0.38054299     0.07300
C579        C  0.75265873  0.24517814  0.41077111    -0.02500
C580        C  0.73674978  0.21358264  0.41233815    -0.02500
C581        C  0.73712414  0.19219474  0.38425021     0.07500
C582        C  0.75431479  0.20210693  0.35506176    -0.02700
Br583      Br  0.75949144  0.17117510  0.31838703    -0.01200
Br584      Br  0.78677054  0.24871957  0.31030245    -0.01300
Br585      Br  0.71480312  0.19921274  0.45295445    -0.01200
Br586      Br  0.75542674  0.27243466  0.45061062    -0.01200
C587        C  0.71242927  0.11955005  0.25891616    -0.02300
C588        C  0.72393384  0.09674947  0.28359554     0.07300
C589        C  0.74746238  0.07192100  0.27401530    -0.02500
C590        C  0.76201838  0.07256068  0.24182715    -0.02500
C591        C  0.75091506  0.09568079  0.21791809     0.07500
C592        C  0.72447614  0.11742083  0.22582079    -0.02700
Br593      Br  0.70443242  0.14419751  0.19111230    -0.01200
Br594      Br  0.68238075  0.15600066  0.26963080    -0.01300
Br595      Br  0.79622393  0.04068299  0.22972712    -0.01200
Br596      Br  0.75847412  0.03523591  0.30339793    -0.01200
C597        C  0.63422793  0.97125414  0.31940710    -0.02300
C598        C  0.62809458  0.94684573  0.34455128     0.07300
C599        C  0.63093719  0.95645324  0.37865193    -0.02500
C600        C  0.64180189  0.98896544  0.38729992    -0.02500
C601        C  0.64834620  0.01278844  0.36224255     0.07500
C602        C  0.64387522  0.00402306  0.32836029    -0.02700
Br603      Br  0.65353438  0.03638583  0.29375489    -0.01200
Br604      Br  0.63248702  0.96016472  0.27219189    -0.01300
Br605      Br  0.64803669  0.00108293  0.43364501    -0.01200
Br606      Br  0.61881027  0.92588413  0.41407564    -0.01200
C607        C  0.72570548  0.22299970  0.59260003    -0.02300
C608        C  0.71230139  0.21097351  0.62318405     0.07300
C609        C  0.73286664  0.20997869  0.65179293    -0.02500
C610        C  0.76610058  0.22135329  0.64983128    -0.02500
C611        C  0.77834602  0.23615459  0.62022611     0.07500
C612        C  0.75835841  0.23627765  0.59138491    -0.02700
Br613      Br  0.77598091  0.25447321  0.55023191    -0.01200
Br614      Br  0.70019761  0.21979303  0.55182881    -0.01300
Br615      Br  0.79535352  0.21516410  0.68735912    -0.01200
Br616      Br  0.71531831  0.19540389  0.69454294    -0.01200
C617        C  0.51065328  0.11686640  0.63487878    -0.02300
C618        C  0.51974258  0.15111689  0.63437185     0.07300
C619        C  0.49475517  0.17553906  0.64058275    -0.02500
C620        C  0.46175739  0.16557932  0.64805670    -0.02500
C621        C  0.45421100  0.13150129  0.65289787     0.07500
C622        C  0.47844688  0.10717089  0.64547133    -0.02700
Br623      Br  0.46710154  0.06043882  0.64954485    -0.01200
Br624      Br  0.54162631  0.08292606  0.61999055    -0.01300
Br625      Br  0.42705591  0.19882107  0.65269410    -0.01200
Br626      Br  0.50551740  0.22267176  0.64287303    -0.01200
C627        C  0.66924031  0.12373281  0.53423012    -0.02300
C628        C  0.63599583  0.13379980  0.53991239     0.07300
C629        C  0.61258943  0.13112042  0.51399292    -0.02500
C630        C  0.62262844  0.12033761  0.48182385    -0.02500
C631        C  0.65682252  0.11324608  0.47485054     0.07500
C632        C  0.67983138  0.11386258  0.50192778    -0.02700
Br633      Br  0.72667723  0.10343031  0.49589746    -0.01200
Br634      Br  0.70112912  0.12557612  0.57043792    -0.01300
Br635      Br  0.58836790  0.11450185  0.44834557    -0.01200
Br636      Br  0.56633043  0.14168071  0.52315332    -0.01200
C637        C  0.34570021  0.70880619  0.29480508    -0.02300
C638        C  0.37114975  0.73208593  0.30183813     0.07300
C639        C  0.39645424  0.73789036  0.27799777    -0.02500
C640        C  0.39624010  0.72072353  0.24707269    -0.02500
C641        C  0.36939965  0.69907824  0.23873806     0.07500
C642        C  0.34451007  0.69260778  0.26336026    -0.02700
Br643      Br  0.30757632  0.66285473  0.25444494    -0.01200
Br644      Br  0.31142827  0.70034734  0.32800600    -0.01300
Br645      Br  0.43437226  0.72524105  0.21755491    -0.01200
Br646      Br  0.43149526  0.76954576  0.28790001    -0.01200
C647        C  0.26200733  0.72928440  0.11408564    -0.02300
C648        C  0.26782811  0.70196851  0.13628034     0.07300
C649        C  0.23996686  0.68842833  0.15405529    -0.02500
C650        C  0.20777579  0.70222170  0.15018331    -0.02500
C651        C  0.20308308  0.73085043  0.13033013     0.07500
C652        C  0.22999787  0.74378379  0.11175908    -0.02700
Br653      Br  0.22216532  0.78076050  0.08163891    -0.01200
Br654      Br  0.29659344  0.74719411  0.08517063    -0.01300
Br655      Br  0.16996845  0.68227752  0.17302317    -0.01200
Br656      Br  0.24464094  0.65222560  0.18573056    -0.01200
C657        C  0.73960923  0.24585168  0.09227783    -0.02300
C658        C  0.72963546  0.26198231  0.12212753     0.07300
C659        C  0.73692828  0.24720689  0.15333369    -0.02500
C660        C  0.75519276  0.21722073  0.15462656    -0.02500
C661        C  0.76271741  0.19979674  0.12480994     0.07500
C662        C  0.75512610  0.21431304  0.09362201    -0.02700
Br663      Br  0.76745074  0.19164755  0.05266328    -0.01200
Br664      Br  0.73111561  0.26633391  0.04946300    -0.01300
Br665      Br  0.77055859  0.20073792  0.19728201    -0.01200
Br666      Br  0.72192172  0.26771569  0.19459003    -0.01200
C667        C  0.72276111  0.37664326  0.24076990    -0.02300
C668        C  0.73812585  0.36120840  0.21308502     0.07300
C669        C  0.76897744  0.34493202  0.21687817    -0.02500
C670        C  0.78332324  0.34179723  0.24885399    -0.02500
C671        C  0.76758964  0.35664884  0.27742005     0.07500
C672        C  0.73799490  0.37578959  0.27239671    -0.02700
Br673      Br  0.71833182  0.40358039  0.30708819    -0.01200
Br674      Br  0.68076808  0.39992534  0.23505758    -0.01300
Br675      Br  0.82443723  0.31644525  0.25157354    -0.01200
Br676      Br  0.79094947  0.32513103  0.17827734    -0.01200
C677        C  0.72550920  0.57583552  0.26250152    -0.02300
C678        C  0.71465314  0.60023139  0.23915035     0.07300
C679        C  0.73766475  0.62534187  0.22857175    -0.02500
C680        C  0.77042133  0.62595372  0.24132806    -0.02500
C681        C  0.78034004  0.60237331  0.26529974     0.07500
C682        C  0.75785591  0.57757546  0.27604254    -0.02700
Br683      Br  0.77181857  0.54559010  0.30935278    -0.01200
Br684      Br  0.69761158  0.53835832  0.27515014    -0.01300
Br685      Br  0.80154182  0.66021517  0.22720759    -0.01200
Br686      Br  0.72500659  0.66063774  0.19808348    -0.01200
C687        C  0.63782514  0.70001953  0.27390549    -0.02300
C688        C  0.61107722  0.69010980  0.25344585     0.07300
C689        C  0.58397965  0.71174592  0.24857416    -0.02500
C690        C  0.58397579  0.74376909  0.26338264    -0.02500
C691        C  0.61204437  0.75495833  0.28190046     0.07500
C692        C  0.63883783  0.73254079  0.28744948    -0.02700
Br693      Br  0.67843501  0.74627307  0.31141754    -0.01200
Br694      Br  0.67348309  0.66898684  0.28299854    -0.01300
Br695      Br  0.54438787  0.77103396  0.25948255    -0.01200
Br696      Br  0.54674899  0.69704269  0.22170978    -0.01200
C697        C  0.48122882  0.63149497  0.13505042    -0.02300
C698        C  0.45466568  0.62603255  0.15775029     0.07300
C699        C  0.46181677  0.61146580  0.18913090    -0.02500
C700        C  0.49505196  0.60351288  0.19813057    -0.02500
C701        C  0.52218791  0.60979455  0.17563117     0.07500
C702        C  0.51439270  0.62285050  0.14337384    -0.02700
Br703      Br  0.54812500  0.62886223  0.10885815    -0.01200
Br704      Br  0.47249636  0.65111323  0.09188278    -0.01300
Br705      Br  0.50180834  0.58518350  0.24247075    -0.01200
Br706      Br  0.42634296  0.60501312  0.22168789    -0.01200
C707        C  0.67261626  0.50539068  0.15918471    -0.02300
C708        C  0.63846161  0.51302219  0.16286565     0.07300
C709        C  0.61428063  0.48898254  0.15430950    -0.02500
C710        C  0.62415120  0.45737687  0.14200779    -0.02500
C711        C  0.65843297  0.44884203  0.14016811     0.07500
C712        C  0.68267248  0.47329920  0.14867978    -0.02700
Br713      Br  0.72987987  0.46286552  0.14917157    -0.01200
Br714      Br  0.70599076  0.53837741  0.17060021    -0.01300
Br715      Br  0.59041856  0.42659247  0.12639920    -0.01200
Br716      Br  0.56758242  0.49948539  0.15974475    -0.01200
C717        C  0.25241665  0.38751777  0.77271331    -0.02300
C718        C  0.27913208  0.36900458  0.75943203     0.07300
C719        C  0.27457412  0.35035478  0.72984263    -0.02500
C720        C  0.24256906  0.34743427  0.71539682    -0.02500
C721        C  0.21460052  0.36412346  0.73006393     0.07500
C722        C  0.22052697  0.38571780  0.75798917    -0.02700
Br723      Br  0.18638747  0.41487950  0.77628097    -0.01200
Br724      Br  0.26035421  0.41682813  0.81050691    -0.01300
Br725      Br  0.23862711  0.31949414  0.67594535    -0.01200
Br726      Br  0.31227272  0.32765096  0.70954906    -0.01200
C727        C  0.39968870  0.21885285  0.74751933    -0.02300
C728        C  0.36941446  0.20338337  0.73806145     0.07300
C729        C  0.33879449  0.21957611  0.74473430    -0.02500
C730        C  0.33841257  0.25010756  0.76232982    -0.02500
C731        C  0.36870608  0.26640758  0.76998009     0.07500
C732        C  0.39934139  0.25093497  0.76205478    -0.02700
Br733      Br  0.44096421  0.27317474  0.77218927    -0.01200
Br734      Br  0.44188432  0.19651035  0.74046703    -0.01300
Br735      Br  0.29623958  0.26917469  0.77620672    -0.01200
Br736      Br  0.29713023  0.19986682  0.73045800    -0.01200
C737        C  0.22145733  0.70163191  0.87045035    -0.02300
C738        C  0.24568303  0.69397676  0.89461151     0.07300
C739        C  0.25380576  0.71755033  0.91940930    -0.02500
C740        C  0.23826874  0.74910676  0.91969442    -0.02500
C741        C  0.21611666  0.75819769  0.89362000     0.07500
C742        C  0.20686400  0.73365073  0.86962719    -0.02700
Br743      Br  0.17538222  0.74319053  0.83436507    -0.01200
Br744      Br  0.20958990  0.66856725  0.83720765    -0.01300
Br745      Br  0.24575478  0.77833871  0.95761507    -0.01200
Br746      Br  0.28639159  0.70640859  0.95304908    -0.01200
C747        C  0.26723047  0.62805158  0.76783378    -0.02300
C748        C  0.26152539  0.60117936  0.79025997     0.07300
C749        C  0.24437158  0.57232223  0.77858883    -0.02500
C750        C  0.23198803  0.57112058  0.74561960    -0.02500
C751        C  0.23656634  0.59844469  0.72408154     0.07500
C752        C  0.25498676  0.62643451  0.73488741    -0.02700
Br753      Br  0.26333853  0.66289650  0.70444183    -0.01200
Br754      Br  0.28988459  0.66843908  0.78203565    -0.01300
Br755      Br  0.20917265  0.53180145  0.72930600    -0.01200
Br756      Br  0.23864235  0.53345585  0.80671203    -0.01200
C757        C  0.29947017  0.62227619  0.00758087    -0.02300
C758        C  0.32392112  0.61607992  0.98243672     0.07300
C759        C  0.35804934  0.61617284  0.99172306    -0.02500
C760        C  0.36739435  0.62262586  0.02521737    -0.02500
C761        C  0.34318485  0.63010616  0.04977792     0.07500
C762        C  0.30913509  0.62929247  0.04085006    -0.02700
Br763      Br  0.27530775  0.63908875  0.07402608    -0.01200
Br764      Br  0.25240245  0.62372398  0.99687704    -0.01300
Br765      Br  0.41336079  0.61903730  0.03796598    -0.01200
Br766      Br  0.39262704  0.60666098  0.95913519    -0.01200
C767        C  0.34770158  0.49445385  0.88844790    -0.02300
C768        C  0.33864777  0.51889012  0.86496307     0.07300
C769        C  0.34123400  0.51168908  0.83048749    -0.02500
C770        C  0.34963253  0.47928671  0.81949631    -0.02500
C771        C  0.35711101  0.45395118  0.84305439     0.07500
C772        C  0.35746755  0.46224483  0.87759632    -0.02700
Br773      Br  0.37266853  0.43026919  0.91022154    -0.01200
Br774      Br  0.34757566  0.50582757  0.93541523    -0.01300
Br775      Br  0.34787542  0.46983597  0.77195535    -0.01200
Br776      Br  0.33216668  0.54599929  0.79789939    -0.01200
C777        C  0.71874550  0.22573411  0.85467513    -0.02300
C778        C  0.70896212  0.24865863  0.87964111     0.07300
C779        C  0.73038955  0.25509001  0.90675897    -0.02500
C780        C  0.76159910  0.23879686  0.90879564    -0.02500
C781        C  0.77240967  0.21712885  0.88275986     0.07500
C782        C  0.75044763  0.21048203  0.85576087    -0.02700
Br783      Br  0.76345832  0.18159229  0.81906795    -0.01200
Br784      Br  0.68832960  0.21525884  0.81875689    -0.01300
Br785      Br  0.78792314  0.24404617  0.94888734    -0.01200
Br786      Br  0.71640644  0.28558674  0.94164049    -0.01200
C787        C  0.58134900  0.23244396  0.77114429    -0.02300
C788        C  0.60718375  0.25476682  0.78061888     0.07300
C789        C  0.63029231  0.26585050  0.75590421    -0.02500
C790        C  0.62840152  0.25346774  0.72294846    -0.02500
C791        C  0.60497765  0.22856993  0.71482442     0.07500
C792        C  0.58091473  0.21869232  0.73862853    -0.02700
Br793      Br  0.54674294  0.18695735  0.72617455    -0.01200
Br794      Br  0.54511063  0.22201379  0.80157594    -0.01300
Br795      Br  0.65871129  0.26987876  0.68892006    -0.01200
Br796      Br  0.66640687  0.29616545  0.76663438    -0.01200
C797        C  0.63080699  0.35227431  0.98014157    -0.02300
C798        C  0.62712910  0.31774397  0.97204091     0.07300
C799        C  0.63079624  0.29372205  0.99797307    -0.02500
C800        C  0.63856003  0.30404531  0.03067006    -0.02500
C801        C  0.64587417  0.33779693  0.03738529     0.07500
C802        C  0.64142281  0.36198241  0.01235547    -0.02700
Br803      Br  0.64904652  0.40861237  0.02278545    -0.01200
Br804      Br  0.62034378  0.38713972  0.94834822    -0.01300
Br805      Br  0.64078004  0.27125830  0.06615921    -0.01200
Br806      Br  0.62864215  0.24600389  0.98972808    -0.01200
C807        C  0.47989700  0.36356719  0.85453279    -0.02300
C808        C  0.45389800  0.33990732  0.85336625     0.07300
C809        C  0.45987858  0.30698771  0.86421579    -0.02500
C810        C  0.49247376  0.29680407  0.87280552    -0.02500
C811        C  0.51977530  0.31988840  0.87096322     0.07500
C812        C  0.51235504  0.35401272  0.86418945    -0.02700
Br813      Br  0.54527753  0.38901048  0.86975618    -0.01200
Br814      Br  0.47058067  0.40964027  0.84344976    -0.01300
Br815      Br  0.49773866  0.25065301  0.88671397    -0.01200
Br816      Br  0.42358807  0.27486695  0.86533744    -0.01200
loop_ 
_geom_bond_atom_site_label_1 
_geom_bond_atom_site_label_2 
_geom_bond_distance 
_geom_bond_site_symmetry_2 
_ccdc_geom_bond_type 
O1           Ni9   1.910       .  S
O1           C11   1.278       .  A
O2           Ni9   1.912       .  S
O2           C12   1.278       .  A
O3           Ni9   1.937       .  S
O3           C13   1.285       .  A
O4           Ni9   1.934       .  S
O4           C14   1.284       .  A
O5          Ni10   1.907       .  S
O5           C14   1.276       .  A
O6          Ni10   1.914       .  S
O6           C13   1.278       .  A
O7          Ni10   1.915       .  S
O7           C12   1.280       .  A
O8          Ni10   1.923       .  S
O8           C11   1.283       .  A
Ni9         Ni10   2.376       .  S
C11         C788   1.490       .  S
C12         C798   1.496       .  S
C13         C778   1.482       .  S
C14         C811   1.511       .  S
O15         Ni23   1.920       .  S
O15          C25   1.282       .  A
O16         Ni23   1.926       .  S
O16          C26   1.283       .  A
O17         Ni23   1.922       .  S
O17          C27   1.281       .  A
O18         Ni23   1.915       .  S
O18          C28   1.280       .  A
O19         Ni24   1.921       .  S
O19          C28   1.281       .  A
O20         Ni24   1.923       .  S
O20          C27   1.282       .  A
O21         Ni24   1.924       .  S
O21          C26   1.282       .  A
O22         Ni24   1.919       .  S
O22          C25   1.281       .  A
Ni23        Ni24   2.385       .  S
C25         C748   1.492       .  S
C26         C758   1.501       .  S
C27         C768   1.480       .  S
C28         C738   1.473       .  S
O29         Ni37   1.922       .  S
O29          C39   1.281       .  A
O30         Ni37   1.915       .  S
O30          C40   1.281       .  A
O31         Ni37   1.913       .  S
O31          C41   1.280       .  A
O32         Ni37   1.918       .  S
O32          C42   1.281       .  A
O33         Ni38   1.923       .  S
O33          C42   1.282       .  A
O34         Ni38   1.919       .  S
O34          C41   1.281       .  A
O35         Ni38   1.925       .  S
O35          C40   1.283       .  A
O36         Ni38   1.919       .  S
O36          C39   1.282       .  A
Ni37        Ni38   2.387       .  S
C39         C718   1.482       .  S
C40         C808   1.484       .  S
C41         C731   1.474       .  S
C42         C771   1.493       .  S
O43         Ni51   1.915       .  S
O43          C53   1.280       .  A
O44         Ni51   1.921       .  S
O44          C54   1.281       .  A
O45         Ni51   1.918       .  S
O45          C55   1.280       .  A
O46         Ni51   1.921       .  S
O46          C56   1.281       .  A
O47         Ni52   1.921       .  S
O47          C56   1.281       .  A
O48         Ni52   1.918       .  S
O48          C55   1.280       .  A
O49         Ni52   1.928       .  S
O49          C54   1.282       .  A
O50         Ni52   1.922       .  S
O50          C53   1.282       .  A
Ni51        Ni52   2.379       .  S
C53         C678   1.498       .  S
C54         C701   1.519       .  S
C55         C688   1.473       .  S
C56         C708   1.478       .  S
O57         Ni65   1.917       .  S
O57          C67   1.281       .  A
O58         Ni65   1.916       .  S
O58          C68   1.280       .  A
O59         Ni65   1.918       .  S
O59          C69   1.281       .  A
O60         Ni65   1.915       .  S
O60          C70   1.281       .  A
O61         Ni66   1.913       .  S
O61          C70   1.280       .  A
O62         Ni66   1.903       .  S
O62          C69   1.278       .  A
O63         Ni66   1.919       .  S
O63          C68   1.282       .  A
O64         Ni66   1.920       .  S
O64          C67   1.282       .  A
Ni65        Ni66   2.388       .  S
C67         C658   1.477       .  S
C68         C711   1.490       .  S
C69         C668   1.473       .  S
C70         C801   1.473       .  S
O71         Ni79   1.921       .  S
O71          C81   1.282       .  A
O72         Ni79   1.937       .  S
O72          C82   1.285       .  A
O73         Ni79   1.918       .  S
O73          C83   1.279       .  A
O74         Ni79   1.925       .  S
O74          C84   1.282       .  A
O75         Ni80   1.932       .  S
O75          C84   1.284       .  A
O76         Ni80   1.927       .  S
O76          C83   1.283       .  A
O77         Ni80   1.928       .  S
O77          C82   1.282       .  A
O78         Ni80   1.930       .  S
O78          C81   1.283       .  A
Ni79        Ni80   2.377       .  S
C81         C641   1.499       .  S
C82         C761   1.494       .  S
C83         C648   1.510       .  S
C84         C698   1.502       .  S
O85         Ni93   1.919       .  S
O85          C95   1.281       .  A
O86         Ni93   1.921       .  S
O86          C96   1.281       .  A
O87         Ni93   1.922       .  S
O87          C97   1.281       .  A
O88         Ni93   1.918       .  S
O88          C98   1.282       .  A
O89         Ni94   1.919       .  S
O89          C98   1.281       .  A
O90         Ni94   1.914       .  S
O90          C97   1.280       .  A
O91         Ni94   1.920       .  S
O91          C96   1.282       .  A
O92         Ni94   1.922       .  S
O92          C95   1.282       .  A
Ni93        Ni94   2.387       .  S
C95         C608   1.486       .  S
C96         C618   1.493       .  S
C97         C791   1.474       .  S
C98         C628   1.480       .  S
O99        Ni107   1.909       .  S
O99         C109   1.278       .  A
O100       Ni107   1.916       .  S
O100        C110   1.280       .  A
O101       Ni107   1.928       .  S
O101        C111   1.283       .  A
O102       Ni107   1.928       .  S
O102        C112   1.283       .  A
O103       Ni108   1.921       .  S
O103        C112   1.281       .  A
O104       Ni108   1.925       .  S
O104        C111   1.281       .  A
O105       Ni108   1.925       .  S
O105        C110   1.282       .  A
O106       Ni108   1.922       .  S
O106        C109   1.283       .  A
Ni107      Ni108   2.380       .  S
C109        C588   1.495       .  S
C110        C631   1.504       .  S
C111        C581   1.483       .  S
C112        C601   1.484       .  S
O113       Ni121   1.909       .  S
O113        C123   1.279       .  A
O114       Ni121   1.911       .  S
O114        C124   1.279       .  A
O115       Ni121   1.919       .  S
O115        C125   1.282       .  A
O116       Ni121   1.927       .  S
O116        C126   1.283       .  A
O117       Ni122   1.914       .  S
O117        C126   1.280       .  A
O118       Ni122   1.923       .  S
O118        C125   1.281       .  A
O119       Ni122   1.927       .  S
O119        C124   1.284       .  A
O120       Ni122   1.924       .  S
O120        C123   1.283       .  A
Ni121      Ni122   2.387       .  S
C123        C728   1.477       .  S
C124        C568   1.494       .  S
C125        C621   1.479       .  S
C126        C561   1.481       .  S
O127       Ni135   1.916       .  S
O127        C137   1.280       .  A
O128       Ni135   1.921       .  S
O128        C138   1.281       .  A
O129       Ni135   1.924       .  S
O129        C139   1.283       .  A
O130       Ni135   1.925       .  S
O130        C140   1.282       .  A
O131       Ni136   1.915       .  S
O131        C140   1.280       .  A
O132       Ni136   1.916       .  S
O132        C139   1.280       .  A
O133       Ni136   1.919       .  S
O133        C138   1.280       .  A
O134       Ni136   1.922       .  S
O134        C137   1.281       .  A
Ni135      Ni136   2.384       .  S
C137        C538   1.474       .  S
C138        C571   1.478       .  S
C139        C528   1.493       .  S
C140        C551   1.499       .  S
O141       Ni149   1.921       .  S
O141        C151   1.282       .  A
O142       Ni149   1.925       .  S
O142        C152   1.283       .  A
O143       Ni149   1.922       .  S
O143        C153   1.280       .  A
O144       Ni149   1.917       .  S
O144        C154   1.280       .  A
O145       Ni150   1.927       .  S
O145        C154   1.282       .  A
O146       Ni150   1.925       .  S
O146        C153   1.282       .  A
O147       Ni150   1.920       .  S
O147        C152   1.281       .  A
O148       Ni150   1.916       .  S
O148        C151   1.281       .  A
Ni149      Ni150   2.384       .  S
C151        C691   1.490       .  S
C152        C598   1.499       .  S
C153        C518   1.480       .  S
C154        C508   1.478       .  S
O155       Ni163   1.918       .  S
O155        C165   1.281       .  A
O156       Ni163   1.920       .  S
O156        C166   1.282       .  A
O157       Ni163   1.925       .  S
O157        C167   1.282       .  A
O158       Ni163   1.923       .  S
O158        C168   1.282       .  A
O159       Ni164   1.920       .  S
O159        C168   1.281       .  A
O160       Ni164   1.924       .  S
O160        C167   1.281       .  A
O161       Ni164   1.920       .  S
O161        C166   1.281       .  A
O162       Ni164   1.918       .  S
O162        C165   1.279       .  A
Ni163      Ni164   2.381       .  S
C165        C498   1.508       .  S
C166        C521   1.491       .  S
C167        C638   1.481       .  S
C168        C548   1.481       .  S
O169       Ni177   1.917       .  S
O169        C179   1.281       .  A
O170       Ni177   1.925       .  S
O170        C180   1.282       .  A
O171       Ni177   1.911       .  S
O171        C181   1.280       .  A
O172       Ni177   1.914       .  S
O172        C182   1.280       .  A
O173       Ni178   1.916       .  S
O173        C182   1.281       .  A
O174       Ni178   1.913       .  S
O174        C181   1.280       .  A
O175       Ni178   1.920       .  S
O175        C180   1.281       .  A
O176       Ni178   1.926       .  S
O176        C179   1.282       .  A
Ni177      Ni178   2.387       .  S
C179        C651   1.482       .  S
C180        C488   1.486       .  S
C181        C468   1.471       .  S
C182        C478   1.489       .  S
O183       Ni191   1.925       .  S
O183        C193   1.283       .  A
O184       Ni191   1.927       .  S
O184        C194   1.283       .  A
O185       Ni191   1.919       .  S
O185        C195   1.280       .  A
O186       Ni191   1.922       .  S
O186        C196   1.281       .  A
O187       Ni192   1.921       .  S
O187        C196   1.281       .  A
O188       Ni192   1.923       .  S
O188        C195   1.281       .  A
O189       Ni192   1.918       .  S
O189        C194   1.280       .  A
O190       Ni192   1.920       .  S
O190        C193   1.281       .  A
Ni191      Ni192   2.381       .  S
C193        C511   1.497       .  S
C194        C491   1.509       .  S
C195        C448   1.476       .  S
C196        C458   1.479       .  S
O197       Ni205   1.919       .  S
O197        C207   1.281       .  A
O198       Ni205   1.926       .  S
O198        C208   1.283       .  A
O199       Ni205   1.918       .  S
O199        C209   1.280       .  A
O200       Ni205   1.920       .  S
O200        C210   1.281       .  A
O201       Ni206   1.921       .  S
O201        C210   1.281       .  A
O202       Ni206   1.923       .  S
O202        C209   1.281       .  A
O203       Ni206   1.921       .  S
O203        C208   1.280       .  A
O204       Ni206   1.914       .  S
O204        C207   1.280       .  A
Ni205      Ni206   2.382       .  S
C207        C741   1.493       .  S
C208        C438   1.508       .  S
C209        C531   1.476       .  S
C210        C481   1.478       .  S
O211       Ni219   1.913       .  S
O211        C221   1.278       .  A
O212       Ni219   1.921       .  S
O212        C222   1.280       .  A
O213       Ni219   1.931       .  S
O213        C223   1.284       .  A
O214       Ni219   1.931       .  S
O214        C224   1.285       .  A
O215       Ni220   1.920       .  S
O215        C224   1.280       .  A
O216       Ni220   1.927       .  S
O216        C223   1.282       .  A
O217       Ni220   1.944       .  S
O217        C222   1.287       .  A
O218       Ni220   1.933       .  S
O218        C221   1.284       .  A
Ni219      Ni220   2.379       .  S
C221        C558   1.511       .  S
C222        C428   1.492       .  S
C223        C441   1.495       .  S
C224        C418   1.500       .  S
O225       Ni233   1.918       .  S
O225        C235   1.281       .  A
O226       Ni233   1.925       .  S
O226        C236   1.283       .  A
O227       Ni233   1.923       .  S
O227        C237   1.281       .  A
O228       Ni233   1.919       .  S
O228        C238   1.281       .  A
O229       Ni234   1.920       .  S
O229        C238   1.282       .  A
O230       Ni234   1.914       .  S
O230        C237   1.281       .  A
O231       Ni234   1.912       .  S
O231        C236   1.280       .  A
O232       Ni234   1.918       .  S
O232        C235   1.280       .  A
Ni233      Ni234   2.386       .  S
C235        C591   1.474       .  S
C236        C408   1.488       .  S
C237        C661   1.476       .  S
C238        C461   1.495       .  S
O239       Ni247   1.925       .  S
O239        C249   1.282       .  A
O240       Ni247   1.928       .  S
O240        C250   1.283       .  A
O241       Ni247   1.924       .  S
O241        C251   1.280       .  A
O242       Ni247   1.918       .  S
O242        C252   1.281       .  A
O243       Ni248   1.912       .  S
O243        C252   1.279       .  A
O244       Ni248   1.914       .  S
O244        C251   1.279       .  A
O245       Ni248   1.923       .  S
O245        C250   1.282       .  A
O246       Ni248   1.923       .  S
O246        C249   1.282       .  A
Ni247      Ni248   2.378       .  S
C249        C781   1.496       .  S
C250        C431   1.496       .  S
C251        C411   1.514       .  S
C252        C398   1.470       .  S
O253       Ni261   1.925       .  S
O253        C263   1.282       .  A
O254       Ni261   1.925       .  S
O254        C264   1.282       .  A
O255       Ni261   1.913       .  S
O255        C265   1.279       .  A
O256       Ni261   1.921       .  S
O256        C266   1.281       .  A
O257       Ni262   1.933       .  S
O257        C266   1.285       .  A
O258       Ni262   1.925       .  S
O258        C265   1.283       .  A
O259       Ni262   1.915       .  S
O259        C264   1.279       .  A
O260       Ni262   1.915       .  S
O260        C263   1.279       .  A
Ni261      Ni262   2.381       .  S
C263        C751   1.475       .  S
C264        C378   1.474       .  S
C265        C541   1.501       .  S
C266        C388   1.507       .  S
O267       Ni275   1.913       .  S
O267        C277   1.279       .  A
O268       Ni275   1.917       .  S
O268        C278   1.280       .  A
O269       Ni275   1.930       .  S
O269        C279   1.283       .  A
O270       Ni275   1.928       .  S
O270        C280   1.283       .  A
O271       Ni276   1.924       .  S
O271        C280   1.281       .  A
O272       Ni276   1.924       .  S
O272        C279   1.281       .  A
O273       Ni276   1.933       .  S
O273        C278   1.284       .  A
O274       Ni276   1.929       .  S
O274        C277   1.283       .  A
Ni275      Ni276   2.379       .  S
C277        C721   1.511       .  S
C278        C371   1.501       .  S
C279        C421   1.483       .  S
C280        C391   1.488       .  S
O281       Ni289   1.921       .  S
O281        C291   1.281       .  A
O282       Ni289   1.914       .  S
O282        C292   1.281       .  A
O283       Ni289   1.911       .  S
O283        C293   1.279       .  A
O284       Ni289   1.905       .  S
O284        C294   1.278       .  A
O285       Ni290   1.919       .  S
O285        C294   1.281       .  A
O286       Ni290   1.916       .  S
O286        C293   1.281       .  A
O287       Ni290   1.917       .  S
O287        C292   1.281       .  A
O288       Ni290   1.915       .  S
O288        C291   1.281       .  A
Ni289      Ni290   2.388       .  S
C291        C501   1.481       .  S
C292        C361   1.486       .  S
C293        C381   1.477       .  S
C294        C471   1.467       .  S
O295       Ni303   1.925       .  S
O295        C305   1.281       .  A
O296       Ni303   1.926       .  S
O296        C306   1.282       .  A
O297       Ni303   1.919       .  S
O297        C307   1.282       .  A
O298       Ni303   1.923       .  S
O298        C308   1.283       .  A
O299       Ni304   1.915       .  S
O299        C308   1.277       .  A
O300       Ni304   1.907       .  S
O300        C307   1.278       .  A
O301       Ni304   1.926       .  S
O301        C306   1.282       .  A
O302       Ni304   1.924       .  S
O302        C305   1.282       .  A
Ni303      Ni304   2.378       .  S
C305        C611   1.480       .  S
C306        C368   1.485       .  S
C307        C401   1.493       .  S
C308        C348   1.510       .  S
O309       Ni317   1.913       .  S
O309        C319   1.279       .  A
O310       Ni317   1.913       .  S
O310        C320   1.279       .  A
O311       Ni317   1.925       .  S
O311        C321   1.283       .  A
O312       Ni317   1.923       .  S
O312        C322   1.282       .  A
O313       Ni318   1.927       .  S
O313        C322   1.283       .  A
O314       Ni318   1.919       .  S
O314        C321   1.281       .  A
O315       Ni318   1.921       .  S
O315        C320   1.280       .  A
O316       Ni318   1.922       .  S
O316        C319   1.282       .  A
Ni317      Ni318   2.379       .  S
C319        C681   1.474       .  S
C320        C358   1.507       .  S
C321        C451   1.490       .  S
C322        C338   1.498       .  S
O323       Ni331   1.912       .  S
O323        C333   1.279       .  A
O324       Ni331   1.919       .  S
O324        C334   1.282       .  A
O325       Ni331   1.926       .  S
O325        C335   1.283       .  A
O326       Ni331   1.925       .  S
O326        C336   1.281       .  A
O327       Ni332   1.937       .  S
O327        C336   1.285       .  A
O328       Ni332   1.925       .  S
O328        C335   1.282       .  A
O329       Ni332   1.918       .  S
O329        C334   1.281       .  A
O330       Ni332   1.913       .  S
O330        C333   1.279       .  A
Ni331      Ni332   2.380       .  S
C333        C671   1.504       .  S
C334        C351   1.489       .  S
C335        C578   1.490       .  S
C336        C341   1.491       .  S
C337        C338   1.419       .  A
C337        C342   1.413       .  A
C337       Br344   1.936       .  S
C338        C339   1.418       .  A
C339        C340   1.413       .  A
C339       Br346   1.932       .  S
C340        C341   1.406       .  A
C340       Br345   1.922       .  S
C341        C342   1.412       .  A
C342       Br343   1.928       .  S
C347        C348   1.428       .  A
C347        C352   1.412       .  A
C347       Br354   1.938       .  S
C348        C349   1.425       .  A
C349        C350   1.412       .  A
C349       Br356   1.939       .  S
C350        C351   1.413       .  A
C350       Br355   1.940       .  S
C351        C352   1.408       .  A
C352       Br353   1.933       .  S
C357        C358   1.427       .  A
C357        C362   1.411   1_655  A
C357       Br364   1.939       .  S
C358        C359   1.424       .  A
C359        C360   1.411   1_655  A
C359       Br366   1.938       .  S
C360        C361   1.413       .  A
C360       Br365   1.938       .  S
C361        C362   1.409       .  A
C362       Br363   1.939       .  S
C367        C368   1.409       .  A
C367        C372   1.410   1_655  A
C367       Br374   1.931       .  S
C368        C369   1.408       .  A
C369        C370   1.415   1_655  A
C369       Br376   1.929       .  S
C370        C371   1.419       .  A
C370       Br375   1.930       .  S
C371        C372   1.421       .  A
C372       Br373   1.937       .  S
C377        C378   1.410       .  A
C377        C382   1.404       .  A
C377       Br384   1.925       .  S
C378        C379   1.407       .  A
C379        C380   1.410       .  A
C379       Br386   1.927       .  S
C380        C381   1.411       .  A
C380       Br385   1.928       .  S
C381        C382   1.412       .  A
C382       Br383   1.937       .  S
C387        C388   1.424       .  A
C387        C392   1.412       .  A
C387       Br394   1.937       .  S
C388        C389   1.422       .  A
C389        C390   1.415       .  A
C389       Br396   1.931       .  S
C390        C391   1.406       .  A
C390       Br395   1.930       .  S
C391        C392   1.410       .  A
C392       Br393   1.934       .  S
C397        C398   1.404       .  A
C397        C402   1.407       .  A
C397       Br404   1.931       .  S
C398        C399   1.405       .  A
C399        C400   1.407       .  A
C399       Br406   1.934       .  S
C400        C401   1.425       .  A
C400       Br405   1.939       .  S
C401        C402   1.420       .  A
C402       Br403   1.935       .  S
C407        C408   1.410       .  A
C407        C412   1.412       .  A
C407       Br414   1.939       .  S
C408        C409   1.409       .  A
C409        C410   1.413   1_554  A
C409       Br416   1.937       .  S
C410        C411   1.429       .  A
C410       Br415   1.938       .  S
C411        C412   1.431   1_556  A
C412       Br413   1.941   1_554  S
C417        C418   1.423       .  A
C417        C422   1.415       .  A
C417       Br424   1.935       .  S
C418        C419   1.417       .  A
C419        C420   1.410       .  A
C419       Br426   1.930       .  S
C420        C421   1.407       .  A
C420       Br425   1.931       .  S
C421        C422   1.408       .  A
C422       Br423   1.931       .  S
C427        C428   1.408       .  A
C427        C432   1.415   1_455  A
C427       Br434   1.919       .  S
C428        C429   1.411       .  A
C429        C430   1.411   1_455  A
C429       Br436   1.927       .  S
C430        C431   1.417       .  A
C430       Br435   1.936       .  S
C431        C432   1.416       .  A
C432       Br433   1.931       .  S
C437        C438   1.425       .  A
C437        C442   1.415   1_565  A
C437       Br444   1.938       .  S
C438        C439   1.420       .  A
C439        C440   1.413       .  A
C439       Br446   1.935       .  S
C440        C441   1.410   1_565  A
C440       Br445   1.924       .  S
C441        C442   1.413       .  A
C442       Br443   1.935       .  S
C447        C448   1.408       .  A
C447        C452   1.412       .  A
C447       Br454   1.931       .  S
C448        C449   1.406       .  A
C449        C450   1.407       .  A
C449       Br456   1.929       .  S
C450        C451   1.417       .  A
C450       Br455   1.933       .  S
C451        C452   1.418       .  A
C452       Br453   1.932       .  S
C457        C458   1.406       .  A
C457        C462   1.412   1_565  A
C457       Br464   1.930       .  S
C458        C459   1.408       .  A
C459        C460   1.409       .  A
C459       Br466   1.933       .  S
C460        C461   1.421   1_565  A
C460       Br465   1.936       .  S
C461        C462   1.419       .  A
C462       Br463   1.932       .  S
C467        C468   1.410       .  A
C467        C472   1.406       .  A
C467       Br474   1.932       .  S
C468        C469   1.413       .  A
C469        C470   1.404       .  A
C469       Br476   1.933       .  S
C470        C471   1.407       .  A
C470       Br475   1.932       .  S
C471        C472   1.409       .  A
C472       Br473   1.932       .  S
C477        C478   1.419       .  A
C477        C482   1.411       .  A
C477       Br484   1.932       .  S
C478        C479   1.417       .  A
C479        C480   1.406   1_554  A
C479       Br486   1.938       .  S
C480        C481   1.410       .  A
C480       Br485   1.930       .  S
C481        C482   1.406   1_556  A
C482       Br483   1.929   1_554  S
C487        C488   1.408       .  A
C487        C492   1.412   1_455  A
C487       Br494   1.936       .  S
C488        C489   1.407       .  A
C489        C490   1.414   1_455  A
C489       Br496   1.933       .  S
C490        C491   1.424       .  A
C490       Br495   1.934       .  S
C491        C492   1.428       .  A
C492       Br493   1.938       .  S
C497        C498   1.427       .  A
C497        C502   1.412       .  A
C497       Br504   1.938       .  S
C498        C499   1.426       .  A
C499        C500   1.409       .  A
C499       Br506   1.937       .  S
C500        C501   1.406       .  A
C500       Br505   1.936       .  S
C501        C502   1.408       .  A
C502       Br503   1.936       .  S
C507        C508   1.406       .  A
C507        C512   1.411       .  A
C507       Br514   1.932       .  S
C508        C509   1.406       .  A
C509        C510   1.410       .  A
C509       Br516   1.931       .  S
C510        C511   1.420       .  A
C510       Br515   1.934       .  S
C511        C512   1.421       .  A
C512       Br513   1.934       .  S
C517        C518   1.406       .  A
C517        C522   1.412       .  A
C517       Br524   1.929       .  S
C518        C519   1.409       .  A
C519        C520   1.408       .  A
C519       Br526   1.930       .  S
C520        C521   1.417       .  A
C520       Br525   1.935       .  S
C521        C522   1.418       .  A
C522       Br523   1.931       .  S
C527        C528   1.420       .  A
C527        C532   1.411       .  A
C527       Br534   1.933       .  S
C528        C529   1.420       .  A
C529        C530   1.409       .  A
C529       Br536   1.935       .  S
C530        C531   1.407       .  A
C530       Br535   1.931       .  S
C531        C532   1.405       .  A
C532       Br533   1.932       .  S
C537        C538   1.405       .  A
C537        C542   1.410       .  A
C537       Br544   1.932       .  S
C538        C539   1.403       .  A
C539        C540   1.410       .  A
C539       Br546   1.934       .  S
C540        C541   1.426       .  A
C540       Br545   1.937       .  S
C541        C542   1.423       .  A
C542       Br543   1.936       .  S
C547        C548   1.407       .  A
C547        C552   1.414       .  A
C547       Br554   1.931       .  S
C548        C549   1.408       .  A
C549        C550   1.407       .  A
C549       Br556   1.932       .  S
C550        C551   1.422       .  A
C550       Br555   1.939       .  S
C551        C552   1.422       .  A
C552       Br553   1.932       .  S
C557        C558   1.431       .  A
C557        C562   1.412       .  A
C557       Br564   1.937       .  S
C558        C559   1.425       .  A
C559        C560   1.413       .  A
C559       Br566   1.935       .  S
C560        C561   1.406       .  A
C560       Br565   1.935       .  S
C561        C562   1.405       .  A
C562       Br563   1.937       .  S
C567        C568   1.418       .  A
C567        C572   1.412   1_545  A
C567       Br574   1.931       .  S
C568        C569   1.423   1_545  A
C569        C570   1.408       .  A
C569       Br576   1.937   1_565  S
C570        C571   1.406       .  A
C570       Br575   1.935       .  S
C571        C572   1.408       .  A
C572       Br573   1.930       .  S
C577        C578   1.413       .  A
C577        C582   1.407       .  A
C577       Br584   1.932       .  S
C578        C579   1.417       .  A
C579        C580   1.415       .  A
C579       Br586   1.930       .  S
C580        C581   1.409       .  A
C580       Br585   1.929       .  S
C581        C582   1.408       .  A
C582       Br583   1.925       .  S
C587        C588   1.424       .  A
C587        C592   1.407       .  A
C587       Br594   1.937       .  S
C588        C589   1.420       .  A
C589        C590   1.409       .  A
C589       Br596   1.934       .  S
C590        C591   1.405       .  A
C590       Br595   1.932       .  S
C591        C592   1.405       .  A
C592       Br593   1.933       .  S
C597        C598   1.422       .  A
C597        C602   1.411   1_565  A
C597       Br604   1.938       .  S
C598        C599   1.419       .  A
C599        C600   1.413       .  A
C599       Br606   1.932       .  S
C600        C601   1.407   1_565  A
C600       Br605   1.930   1_565  S
C601        C602   1.409       .  A
C602       Br603   1.933       .  S
C607        C608   1.417       .  A
C607        C612   1.411       .  A
C607       Br614   1.931       .  S
C608        C609   1.413       .  A
C609        C610   1.408       .  A
C609       Br616   1.934       .  S
C610        C611   1.409       .  A
C610       Br615   1.924       .  S
C611        C612   1.406       .  A
C612       Br613   1.929       .  S
C617        C618   1.417       .  A
C617        C622   1.409       .  A
C617       Br624   1.931       .  S
C618        C619   1.420       .  A
C619        C620   1.410       .  A
C619       Br626   1.935       .  S
C620        C621   1.409       .  A
C620       Br625   1.933       .  S
C621        C622   1.406       .  A
C622       Br623   1.929       .  S
C627        C628   1.409       .  A
C627        C632   1.411       .  A
C627       Br634   1.936       .  S
C628        C629   1.404       .  A
C629        C630   1.411       .  A
C629       Br636   1.934       .  S
C630        C631   1.425       .  A
C630       Br635   1.935       .  S
C631        C632   1.425       .  A
C632       Br633   1.937       .  S
C637        C638   1.408       .  A
C637        C642   1.413       .  A
C637       Br644   1.933       .  S
C638        C639   1.406       .  A
C639        C640   1.412       .  A
C639       Br646   1.930       .  S
C640        C641   1.420       .  A
C640       Br645   1.933       .  S
C641        C642   1.420       .  A
C642       Br643   1.931       .  S
C647        C648   1.429       .  A
C647        C652   1.412       .  A
C647       Br654   1.936       .  S
C648        C649   1.426       .  A
C649        C650   1.413       .  A
C649       Br656   1.935       .  S
C650        C651   1.408       .  A
C650       Br655   1.935       .  S
C651        C652   1.404       .  A
C652       Br653   1.936       .  S
C657        C658   1.410       .  A
C657        C662   1.408       .  A
C657       Br664   1.930       .  S
C658        C659   1.413       .  A
C659        C660   1.407       .  A
C659       Br666   1.932       .  S
C660        C661   1.410       .  A
C660       Br665   1.932       .  S
C661        C662   1.411       .  A
C662       Br663   1.930       .  S
C667        C668   1.404       .  A
C667        C672   1.406       .  A
C667       Br674   1.939       .  S
C668        C669   1.407       .  A
C669        C670   1.409       .  A
C669       Br676   1.939       .  S
C670        C671   1.429       .  A
C670       Br675   1.939       .  S
C671        C672   1.428       .  A
C672       Br673   1.939       .  S
C677        C678   1.422       .  A
C677        C682   1.408       .  A
C677       Br684   1.934       .  S
C678        C679   1.425       .  A
C679        C680   1.410       .  A
C679       Br686   1.937       .  S
C680        C681   1.405       .  A
C680       Br685   1.934       .  S
C681        C682   1.405       .  A
C682       Br683   1.933       .  S
C687        C688   1.407       .  A
C687        C692   1.408       .  A
C687       Br694   1.930       .  S
C688        C689   1.404       .  A
C689        C690   1.409       .  A
C689       Br696   1.932       .  S
C690        C691   1.420       .  A
C690       Br695   1.933       .  S
C691        C692   1.418       .  A
C692       Br693   1.935       .  S
C697        C698   1.411       .  A
C697        C702   1.415       .  A
C697       Br704   1.930       .  S
C698        C699   1.414       .  A
C699        C700   1.418       .  A
C699       Br706   1.938       .  S
C700        C701   1.429       .  A
C700       Br705   1.939       .  S
C701        C702   1.428       .  A
C702       Br703   1.940       .  S
C707        C708   1.409       .  A
C707        C712   1.408       .  A
C707       Br714   1.932       .  S
C708        C709   1.406       .  A
C709        C710   1.411       .  A
C709       Br716   1.929       .  S
C710        C711   1.417       .  A
C710       Br715   1.931       .  S
C711        C712   1.419       .  A
C712       Br713   1.937       .  S
C717        C718   1.403       .  A
C717        C722   1.411       .  A
C717       Br724   1.936       .  S
C718        C719   1.408       .  A
C719        C720   1.413       .  A
C719       Br726   1.936       .  S
C720        C721   1.427       .  A
C720       Br725   1.936       .  S
C721        C722   1.429       .  A
C722       Br723   1.937       .  S
C727        C728   1.413       .  A
C727        C732   1.407       .  A
C727       Br734   1.932       .  S
C728        C729   1.412       .  A
C729        C730   1.407       .  A
C729       Br736   1.933       .  S
C730        C731   1.411       .  A
C730       Br735   1.932       .  S
C731        C732   1.409       .  A
C732       Br733   1.933       .  S
C737        C738   1.407       .  A
C737        C742   1.409       .  A
C737       Br744   1.932       .  S
C738        C739   1.405       .  A
C739        C740   1.408       .  A
C739       Br746   1.932       .  S
C740        C741   1.420       .  A
C740       Br745   1.935       .  S
C741        C742   1.420       .  A
C742       Br743   1.935       .  S
C747        C748   1.418       .  A
C747        C752   1.408       .  A
C747       Br754   1.936       .  S
C748        C749   1.421       .  A
C749        C750   1.410       .  A
C749       Br756   1.933       .  S
C750        C751   1.404       .  A
C750       Br755   1.931       .  S
C751        C752   1.408       .  A
C752       Br753   1.929       .  S
C757        C758   1.420   1_554  A
C757        C762   1.413       .  A
C757       Br764   1.936   1_554  S
C758        C759   1.418       .  A
C759        C760   1.414   1_556  A
C759       Br766   1.933       .  S
C760        C761   1.407       .  A
C760       Br765   1.919       .  S
C761        C762   1.412       .  A
C762       Br763   1.930       .  S
C767        C768   1.406       .  A
C767        C772   1.413       .  A
C767       Br774   1.929       .  S
C768        C769   1.409       .  A
C769        C770   1.408       .  A
C769       Br776   1.930       .  S
C770        C771   1.418       .  A
C770       Br775   1.937       .  S
C771        C772   1.418       .  A
C772       Br773   1.930       .  S
C777        C778   1.407       .  A
C777        C782   1.411       .  A
C777       Br784   1.932       .  S
C778        C779   1.409       .  A
C779        C780   1.414       .  A
C779       Br786   1.930       .  S
C780        C781   1.418       .  A
C780       Br785   1.933       .  S
C781        C782   1.420       .  A
C782       Br783   1.934       .  S
C787        C788   1.418       .  A
C787        C792   1.409       .  A
C787       Br794   1.934       .  S
C788        C789   1.421       .  A
C789        C790   1.407       .  A
C789       Br796   1.935       .  S
C790        C791   1.405       .  A
C790       Br795   1.933       .  S
C791        C792   1.407       .  A
C792       Br793   1.931       .  S
C797        C798   1.425       .  A
C797        C802   1.411   1_556  A
C797       Br804   1.936       .  S
C798        C799   1.423       .  A
C799        C800   1.405   1_556  A
C799       Br806   1.937       .  S
C800        C801   1.406       .  A
C800       Br805   1.936       .  S
C801        C802   1.405       .  A
C802       Br803   1.934       .  S
C807        C808   1.407       .  A
C807        C812   1.412       .  A
C807       Br814   1.933       .  S
C808        C809   1.408       .  A
C809        C810   1.413       .  A
C809       Br816   1.938       .  S
C810        C811   1.432       .  A
C810       Br815   1.941       .  S
C811        C812   1.424       .  A
C812       Br813   1.934       .  S
