geometry optimzed in LAMMPS
_audit_creation_date              2020-12-01 
_audit_creation_method            'lammps2cif' 
_symmetry_space_group_name_H-M    'P1' 
_symmetry_Int_Tables_number       1 
_symmetry_cell_setting            triclinic 
loop_ 
_symmetry_equiv_pos_as_xyz 
  x,y,z 
_cell_length_a                    48.72516475 
_cell_length_b                    48.65089809006725 
_cell_length_c                    32.870880827685596 
_cell_angle_alpha                 89.955494821512 
_cell_angle_beta                  90.04742695015187 
_cell_angle_gamma                 90.00009526351592 
loop_ 
_atom_site_label 
_atom_site_type_symbol 
_atom_site_fract_x 
_atom_site_fract_y 
_atom_site_fract_z 
_atom_site_charge 
In1        In  0.40530277  0.74506186  0.32610171     1.36900
C2          C  0.36625836  0.78380353  0.32199047     0.77700
O3          O  0.38817309  0.72811447  0.26787061    -0.60800
O4          O  0.38316294  0.70478836  0.32188104    -0.51700
C5          C  0.45432128  0.74639839  0.28933659     0.70300
O6          O  0.43952402  0.76738356  0.29417874    -0.46500
C7          C  0.41577223  0.74227301  0.40598780     0.75000
O8          O  0.39000476  0.78722759  0.30760905    -0.58400
O9          O  0.40621931  0.72248787  0.38578233    -0.48500
O10         O  0.36296539  0.76083179  0.33881241    -0.54800
C11         C  0.37816258  0.70695119  0.28436607     0.85200
O12         O  0.44426538  0.72472526  0.30427198    -0.56700
O13         O  0.42125962  0.76310554  0.38473870    -0.60000
In14       In  0.60527597  0.74740574  0.16045305     1.36900
C15         C  0.64239351  0.78778123  0.16066464     0.77700
O16         O  0.62273688  0.73089520  0.21851577    -0.60800
O17         O  0.62921758  0.70786725  0.16491900    -0.51700
C18         C  0.55637996  0.74687843  0.19738001     0.70300
O19         O  0.57234961  0.76727596  0.19824287    -0.46500
C20         C  0.59268924  0.74528850  0.08135851     0.75000
O21         O  0.61998656  0.78969377  0.17965433    -0.58400
O22         O  0.60230332  0.72504499  0.10067424    -0.48500
O23         O  0.64555996  0.76531737  0.14230734    -0.54800
C24         C  0.63348280  0.70997562  0.20261927     0.85200
O25         O  0.56514898  0.72711604  0.17626595    -0.56700
O26         O  0.58871679  0.76625700  0.10309742    -0.60000
In27       In  0.75587278  0.10748213  0.32275474     1.36900
C28         C  0.71504228  0.14402447  0.32307170     0.77700
O29         O  0.73925720  0.08793670  0.37965829    -0.60800
O30         O  0.77698747  0.10914382  0.38347268    -0.51700
C31         C  0.75727584  0.05958021  0.28298820     0.70300
O32         O  0.73545081  0.07291370  0.28878184    -0.46500
C33         C  0.79258755  0.13652900  0.28124989     0.75000
O34         O  0.71387252  0.12193816  0.30302455    -0.58400
O35         O  0.79784506  0.12577435  0.31529332    -0.48500
O36         O  0.73699502  0.14700556  0.34286802    -0.54800
C37         C  0.75836164  0.09643353  0.40225157     0.85200
O38         O  0.77823021  0.07046353  0.29864925    -0.56700
O39         O  0.76860322  0.13199152  0.26849354    -0.60000
In40       In  0.76650985  0.90943116  0.15184836     1.36900
C41         C  0.72653100  0.87217220  0.15777289     0.77700
O42         O  0.74626458  0.92336153  0.09393281    -0.60800
O43         O  0.78820922  0.91265142  0.09147754    -0.51700
C44         C  0.76456615  0.95850152  0.18901754     0.70300
O45         O  0.74358554  0.94440307  0.18104500    -0.46500
C46         C  0.80537958  0.88023826  0.18930582     0.75000
O47         O  0.72776145  0.89300384  0.18046298    -0.58400
O48         O  0.80790143  0.88843960  0.15311820    -0.48500
O49         O  0.74584285  0.87058623  0.13239566    -0.54800
C50         C  0.76718415  0.91999488  0.07195435     0.85200
O51         O  0.78657339  0.94782042  0.17658949    -0.56700
O52         O  0.78339094  0.88764436  0.20618604    -0.60000
In53       In  0.59575838  0.27097776  0.32332915     1.36900
C54         C  0.63255468  0.23029461  0.32551549     0.77700
O55         O  0.61819184  0.28438588  0.26754575    -0.60800
O56         O  0.61445963  0.31294751  0.31565850    -0.51700
C57         C  0.54767637  0.27078481  0.28425074     0.70300
O58         O  0.56323945  0.25012450  0.28583607    -0.46500
C59         C  0.58322761  0.27497378  0.40205172     0.75000
O60         O  0.61010716  0.22843193  0.30656148    -0.58400
O61         O  0.59553788  0.29356573  0.38263235    -0.48500
O62         O  0.63590743  0.25295612  0.34337264    -0.54800
C63         C  0.62388147  0.30801162  0.28074742     0.85200
O64         O  0.55653921  0.29123505  0.30368425    -0.56700
O65         O  0.57672006  0.25444890  0.38067458    -0.60000
In66       In  0.39732563  0.26867965  0.15594919     1.36900
C67         C  0.36069153  0.22795045  0.15687510     0.77700
O68         O  0.37692372  0.28388514  0.21284593    -0.60800
O69         O  0.37594521  0.30926928  0.16035465    -0.51700
C70         C  0.44625664  0.26915411  0.19187787     0.70300
O71         O  0.43329209  0.24733328  0.18436068    -0.46500
C72         C  0.40863461  0.27195841  0.07684960     0.75000
O73         O  0.38199214  0.22759724  0.17868733    -0.58400
O74         O  0.39728669  0.29108856  0.09642826    -0.48500
O75         O  0.35843420  0.24911005  0.13506783    -0.54800
C76         C  0.36904140  0.30616389  0.19702568     0.85200
O77         O  0.43436278  0.29075632  0.18017084    -0.56700
O78         O  0.41557933  0.25173555  0.09848648    -0.60000
In79       In  0.24221477  0.90634004  0.31823542     1.36900
C80         C  0.28200062  0.86846231  0.31542768     0.77700
O81         O  0.26038176  0.92159436  0.37698288    -0.60800
O82         O  0.21780697  0.91360758  0.37484797    -0.51700
C83         C  0.24238441  0.95499577  0.28069549     0.70300
O84         O  0.26403588  0.94144040  0.28718853    -0.46500
C85         C  0.20381340  0.87776564  0.27924774     0.75000
O86         O  0.28270378  0.89018070  0.29445019    -0.58400
O87         O  0.20460238  0.87964247  0.31748160    -0.48500
O88         O  0.26102933  0.86644975  0.33758419    -0.54800
C89         C  0.23802667  0.92070504  0.39625002     0.85200
O90         O  0.22097409  0.94380799  0.29440049    -0.56700
O91         O  0.22271311  0.89062151  0.26128916    -0.60000
In92       In  0.23434213  0.10818084  0.15788405     1.36900
C93         C  0.27467703  0.14528797  0.15611909     0.77700
O94         O  0.25056271  0.09353976  0.09831472    -0.60800
O95         O  0.20833881  0.10332809  0.10163327    -0.51700
C96         C  0.23615382  0.05881505  0.19339238     0.70300
O97         O  0.25727671  0.07298699  0.18629912    -0.46500
C98         C  0.19909640  0.13790237  0.20103134     0.75000
O99         O  0.27602313  0.12364908  0.17723217    -0.58400
O100        O  0.19593614  0.13295248  0.16369136    -0.48500
O101        O  0.25282725  0.14751170  0.13593876    -0.54800
C102        C  0.22812509  0.09593872  0.07953181     0.85200
O103        O  0.21416464  0.06987984  0.18157353    -0.56700
O104        O  0.22009684  0.12695878  0.21653481    -0.60000
In105      In  0.39849072  0.74674306  0.65952047     1.36900
C106        C  0.36073499  0.78662890  0.65870178     0.77700
O107        O  0.41171910  0.76513549  0.60021738    -0.60800
O108        O  0.40621119  0.72195907  0.60374577    -0.51700
C109        C  0.44577209  0.74961456  0.69961195     0.70300
O110        O  0.42453296  0.76227258  0.71100022    -0.46500
C111        C  0.37197001  0.70554545  0.69534951     0.75000
O112        O  0.38566128  0.79131081  0.66655458    -0.58400
O113        O  0.37242698  0.70872174  0.65732492    -0.48500
O114        O  0.35564498  0.76178674  0.65159704    -0.54800
C115        C  0.41162218  0.74243270  0.58163827     0.85200
O116        O  0.44286610  0.73591224  0.66738253    -0.56700
O117        O  0.38586648  0.72296900  0.71484299    -0.60000
In118      In  0.59657227  0.74629417  0.82686117     1.36900
C119        C  0.63353466  0.78684653  0.82496701     0.77700
O120        O  0.58658890  0.76603795  0.88644159    -0.60800
O121        O  0.58786662  0.72250393  0.88352310    -0.51700
C122        C  0.54929188  0.74860324  0.78594627     0.70300
O123        O  0.57140176  0.75840605  0.77236326    -0.46500
C124        C  0.62377767  0.70408180  0.79512377     0.75000
O125        O  0.60836170  0.79100426  0.81824793    -0.58400
O126        O  0.62255019  0.70835589  0.83284709    -0.48500
O127        O  0.63932200  0.76212537  0.83185809    -0.54800
C128        C  0.58539357  0.74356117  0.90560862     0.85200
O129        O  0.55132756  0.73800054  0.82081616    -0.56700
O130        O  0.61025667  0.72085124  0.77385005    -0.60000
In131      In  0.75176939  0.11061778  0.65696682     1.36900
C132        C  0.71131118  0.14734260  0.65283338     0.77700
O133        O  0.79287488  0.13138721  0.65949565    -0.60800
O134        O  0.76951055  0.12863779  0.71368325    -0.51700
C135        C  0.75001249  0.06297710  0.69681036     0.70300
O136        O  0.76456941  0.06684430  0.66569526    -0.46500
C137        C  0.75660065  0.09903021  0.57829163     0.75000
O138        O  0.70709476  0.12224750  0.66013118    -0.58400
O139        O  0.77600582  0.10841110  0.59954839    -0.48500
O140        O  0.73616993  0.15338260  0.64766909    -0.54800
C141        C  0.79104039  0.13728619  0.69672657     0.85200
O142        O  0.73627772  0.08359470  0.70783859    -0.56700
O143        O  0.73481773  0.09453777  0.59801367    -0.60000
In144      In  0.75609531  0.91002476  0.81631259     1.36900
C145        C  0.71602182  0.87284283  0.81817400     0.77700
O146        O  0.77466842  0.89580430  0.75736997    -0.60800
O147        O  0.79613774  0.88736995  0.81179646    -0.51700
C148        C  0.75193102  0.95913116  0.78155803     0.70300
O149        O  0.73963049  0.93819763  0.76832202    -0.46500
C150        C  0.75980213  0.91959331  0.89573323     0.75000
O151        O  0.71180953  0.89768766  0.80913344    -0.58400
O152        O  0.78065562  0.91575455  0.87358024    -0.48500
O153        O  0.74078066  0.86727907  0.82551485    -0.54800
C154        C  0.79513490  0.88449027  0.77368866     0.85200
O155        O  0.76626217  0.95501293  0.81288625    -0.56700
O156        O  0.73738089  0.91961634  0.87654813    -0.60000
In157      In  0.58839220  0.26994226  0.65640398     1.36900
C158        C  0.62697176  0.23117873  0.65504383     0.77700
O159        O  0.57649001  0.25101760  0.59676006    -0.60800
O160        O  0.58086621  0.29419063  0.59916846    -0.51700
C161        C  0.53996958  0.26769938  0.69504129     0.70300
O162        O  0.55690422  0.24809187  0.69512127    -0.46500
C163        C  0.61796004  0.30699221  0.69698024     0.75000
O164        O  0.60263966  0.22623771  0.66608734    -0.58400
O165        O  0.61407638  0.30817157  0.65909706    -0.48500
O166        O  0.63119032  0.25571734  0.64478753    -0.54800
C167        C  0.57641757  0.27334396  0.57738666     0.85200
O168        O  0.54789833  0.28831872  0.67492799    -0.56700
O169        O  0.60547002  0.28755683  0.71445958    -0.60000
In170      In  0.38850548  0.26934903  0.82363996     1.36900
C171        C  0.34974285  0.23050313  0.82408390     0.77700
O172        O  0.40468616  0.25081527  0.88160284    -0.60800
O173        O  0.39570335  0.29326910  0.88067582    -0.51700
C174        C  0.43628420  0.26882901  0.78331720     0.70300
O175        O  0.42276978  0.24727464  0.79071875    -0.46500
C176        C  0.35962570  0.30737661  0.78457095     0.75000
O177        O  0.37193485  0.22805033  0.80461683    -0.58400
O178        O  0.36492368  0.30900069  0.82205743    -0.48500
O179        O  0.34768869  0.25274422  0.84336832    -0.54800
C180        C  0.40335386  0.27293000  0.90145863     0.85200
O181        O  0.42551931  0.29034975  0.79736484    -0.56700
O182        O  0.36926696  0.28629694  0.76743755    -0.60000
In183      In  0.23777848  0.90980763  0.65038706     1.36900
C184        C  0.27775895  0.87230810  0.65301851     0.77700
O185        O  0.22031649  0.89019186  0.70639653    -0.60800
O186        O  0.19909531  0.88508068  0.65055792    -0.51700
C187        C  0.23576393  0.95790251  0.68962667     0.70300
O188        O  0.25771882  0.94463176  0.68452642    -0.46500
C189        C  0.23667501  0.92344466  0.57170392     0.75000
O190        O  0.27989347  0.89555978  0.66974792    -0.58400
O191        O  0.21557390  0.91630176  0.59115755    -0.48500
O192        O  0.25521565  0.86843507  0.63513933    -0.54800
C193        C  0.20018560  0.87954705  0.68801641     0.85200
O194        O  0.21495358  0.94664851  0.67413545    -0.56700
O195        O  0.25798109  0.92491352  0.59325132    -0.60000
In196      In  0.22734091  0.10640937  0.82442627     1.36900
C197        C  0.26689752  0.14446344  0.82515212     0.77700
O198        O  0.21271503  0.12624689  0.76735583    -0.60800
O199        O  0.18609574  0.12642896  0.81825378    -0.51700
C200        C  0.22858300  0.05863466  0.78417177     0.70300
O201        O  0.24810198  0.07561353  0.78431653    -0.46500
C202        C  0.22579425  0.09526601  0.90368196     0.75000
O203        O  0.27033904  0.12054309  0.81135704    -0.58400
O204        O  0.20560554  0.10526324  0.88478199    -0.48500
O205        O  0.24315344  0.14869758  0.83894529    -0.54800
C206        C  0.19003394  0.13376117  0.78189933     0.85200
O207        O  0.20849146  0.06577602  0.80592607    -0.56700
O208        O  0.24592349  0.08937046  0.88130704    -0.60000
In209      In  0.74213356  0.60794542  0.33506926     1.36900
C210        C  0.78298133  0.64466867  0.33141790     0.77700
O211        O  0.72691680  0.62570016  0.27616616    -0.60800
O212        O  0.70415421  0.63378875  0.32964369    -0.51700
C213        C  0.74212418  0.55902354  0.29769659     0.70300
O214        O  0.76383469  0.57058894  0.30974346    -0.46500
C215        C  0.73529723  0.59624412  0.41419177     0.75000
O216        O  0.78336481  0.62220823  0.31234019    -0.58400
O217        O  0.71598973  0.60384211  0.39129025    -0.48500
O218        O  0.76188700  0.64790572  0.35301448    -0.54800
C219        C  0.70639143  0.63740266  0.29176579     0.85200
O220        O  0.72059328  0.57198099  0.30667479    -0.56700
O221        O  0.75787151  0.59326913  0.39598642    -0.60000
In222      In  0.74036044  0.40948960  0.16440124     1.36900
C223        C  0.78564594  0.37885710  0.17239492     0.77700
O224        O  0.70449455  0.40328019  0.20642144    -0.60800
O225        O  0.71688030  0.37013815  0.16914846    -0.51700
C226        C  0.74324221  0.45717619  0.20471269     0.70300
O227        O  0.76202503  0.43937050  0.20598486    -0.46500
C228        C  0.73012450  0.41815921  0.08521931     0.75000
O229        O  0.76773150  0.38076156  0.19987453    -0.58400
O230        O  0.71616748  0.40215224  0.10703482    -0.48500
O231        O  0.78088742  0.39375816  0.14184234    -0.54800
C232        C  0.70063432  0.37860178  0.19616435     0.85200
O233        O  0.72330647  0.45060713  0.18225160    -0.56700
O234        O  0.74887664  0.43043858  0.10441963    -0.60000
In235      In  0.90450007  0.76877106  0.31893037     1.36900
C236        C  0.86693140  0.72922822  0.32263150     0.77700
O237        O  0.92015600  0.75081975  0.37781603    -0.60800
O238        O  0.90606775  0.79192062  0.37747963    -0.51700
C239        C  0.95230859  0.76808172  0.27999883     0.70300
O240        O  0.93393420  0.75027515  0.27424945    -0.46500
C241        C  0.87759274  0.80705472  0.27729198     0.75000
O242        O  0.89112417  0.72470489  0.31062292    -0.58400
O243        O  0.88575608  0.81058061  0.31329101    -0.48500
O244        O  0.86226682  0.75387672  0.33195959    -0.54800
C245        C  0.91534037  0.77223732  0.39826418     0.85200
O246        O  0.94641544  0.78566793  0.30666317    -0.56700
O247        O  0.88416687  0.78423984  0.26201170    -0.60000
In248      In  0.10148914  0.76907944  0.15026111     1.36900
C249        C  0.13924921  0.72968425  0.15318437     0.77700
O250        O  0.08879746  0.75091200  0.09065772    -0.60800
O251        O  0.09638811  0.79358132  0.09238845    -0.51700
C252        C  0.05314658  0.76756499  0.18735598     0.70300
O253        O  0.06730401  0.74634923  0.18102662    -0.46500
C254        C  0.12898607  0.80563528  0.19402461     0.75000
O255        O  0.11515856  0.72640143  0.16627670    -0.58400
O256        O  0.12444116  0.80848073  0.15644365    -0.48500
O257        O  0.14370086  0.75312616  0.13821248    -0.54800
C258        C  0.09010515  0.77305382  0.07098273     0.85200
O259        O  0.06343994  0.78941996  0.17358696    -0.56700
O260        O  0.11887201  0.78412301  0.20931404    -0.60000
In261      In  0.09808722  0.24916707  0.32806542     1.36900
C262        C  0.13543128  0.28896406  0.33092613     0.77700
O263        O  0.07875226  0.26569712  0.38481651    -0.60800
O264        O  0.09436629  0.22517478  0.38606610    -0.51700
C265        C  0.05041595  0.25019953  0.28839694     0.70300
O266        O  0.06340540  0.27163837  0.29791079    -0.46500
C267        C  0.12761187  0.21289707  0.28689254     0.75000
O268        O  0.11422348  0.29044035  0.30899498    -0.58400
O269        O  0.11979484  0.20878523  0.32296294    -0.48500
O270        O  0.13712022  0.26723511  0.35156749    -0.54800
C271        C  0.08331720  0.24444533  0.40569089     0.85200
O272        O  0.06186569  0.22824117  0.29965450    -0.56700
O273        O  0.11999729  0.23551445  0.27188929    -0.60000
In274      In  0.89864252  0.24823415  0.16363536     1.36900
C275        C  0.86851554  0.29358473  0.17427274     0.77700
O276        O  0.91952873  0.25962535  0.10487350    -0.60800
O277        O  0.89383888  0.22466375  0.10537102    -0.51700
C278        C  0.94687237  0.24846382  0.20142632     0.70300
O279        O  0.93043052  0.26846685  0.20288514    -0.46500
C280        C  0.86622813  0.20959212  0.19487499     0.75000
O281        O  0.87303637  0.27667527  0.20252767    -0.58400
O282        O  0.85908202  0.22493079  0.16583218    -0.48500
O283        O  0.88063140  0.28785789  0.14152025    -0.54800
C284        C  0.90908744  0.24023414  0.08468569     0.85200
O285        O  0.93866502  0.22863322  0.18002711    -0.56700
O286        O  0.89051537  0.21343552  0.20683087    -0.60000
In287      In  0.25951540  0.40990309  0.32260095     1.36900
C288        C  0.21915254  0.37340314  0.32581046     0.77700
O289        O  0.27429131  0.38905840  0.26603079    -0.60800
O290        O  0.30015826  0.38824884  0.31781309    -0.51700
C291        C  0.25950422  0.45668326  0.28083153     0.70300
O292        O  0.23999127  0.43974762  0.27949448    -0.46500
C293        C  0.26019174  0.42357644  0.40140066     0.75000
O294        O  0.21608307  0.39711125  0.31098356    -0.58400
O295        O  0.28086478  0.41398571  0.38317341    -0.48500
O296        O  0.24305208  0.36852895  0.33865450    -0.54800
C297        C  0.29663860  0.38107980  0.28127885     0.85200
O298        O  0.27881503  0.44971084  0.30425071    -0.56700
O299        O  0.23987438  0.42769142  0.37849330    -0.60000
In300      In  0.26416262  0.60882910  0.15722647     1.36900
C301        C  0.22507313  0.64710223  0.15669075     0.77700
O302        O  0.27859226  0.63023689  0.21340916    -0.60800
O303        O  0.30579043  0.62811010  0.16323219    -0.51700
C304        C  0.26295003  0.56042390  0.19465467     0.70300
O305        O  0.24142517  0.57330937  0.18517404    -0.46500
C306        C  0.26819771  0.59533453  0.07899992     0.75000
O307        O  0.22392220  0.62608481  0.17913622    -0.58400
O308        O  0.28713867  0.60717007  0.09832842    -0.48500
O309        O  0.24603208  0.64812522  0.13437399    -0.54800
C310        C  0.30180122  0.63640119  0.19911423     0.85200
O311        O  0.28487267  0.57216333  0.18426781    -0.56700
O312        O  0.24754564  0.58944934  0.10038434    -0.60000
In313      In  0.73781368  0.60605834  0.67028779     1.36900
C314        C  0.77716935  0.64434753  0.66990683     0.77700
O315        O  0.75380830  0.58703288  0.61229840    -0.60800
O316        O  0.71580399  0.60777652  0.61015212    -0.51700
C317        C  0.73838585  0.55679601  0.70619050     0.70300
O318        O  0.75952911  0.57156138  0.70270939    -0.46500
C319        C  0.70012437  0.63185866  0.71475960     0.75000
O320        O  0.77967047  0.62201811  0.68911069    -0.58400
O321        O  0.69591107  0.62418887  0.67865016    -0.48500
O322        O  0.75467101  0.64680250  0.65139163    -0.54800
C323        C  0.73401263  0.59502708  0.59055254     0.85200
O324        O  0.71717003  0.56720887  0.69053117    -0.56700
O325        O  0.72361475  0.62584858  0.72813522    -0.60000
In326      In  0.73028996  0.40440389  0.83098636     1.36900
C327        C  0.76994345  0.36660503  0.83597050     0.77700
O328        O  0.74534226  0.42582207  0.88759346    -0.60800
O329        O  0.70740372  0.40507348  0.89034794    -0.51700
C330        C  0.73310501  0.45185727  0.79037277     0.70300
O331        O  0.75383613  0.43698357  0.79680304    -0.46500
C332        C  0.69275179  0.37655229  0.78819884     0.75000
O333        O  0.74674536  0.36380045  0.85226075    -0.58400
O334        O  0.68815658  0.38632603  0.82303591    -0.48500
O335        O  0.77291438  0.38903842  0.81725494    -0.54800
C336        C  0.72545658  0.41838593  0.90942229     0.85200
O337        O  0.71117853  0.44251105  0.80525494    -0.56700
O338        O  0.71648147  0.38171226  0.77484294    -0.60000
In339      In  0.89694230  0.77036253  0.65207191     1.36900
C340        C  0.85975666  0.73008898  0.65674904     0.77700
O341        O  0.87934046  0.78962338  0.70780945    -0.60800
O342        O  0.87128058  0.80909076  0.65156158    -0.51700
C343        C  0.94534018  0.77065531  0.69006595     0.70300
O344        O  0.93142271  0.74909190  0.68480196    -0.46500
C345        C  0.91216102  0.77181168  0.57398538     0.75000
O346        O  0.88088513  0.73077103  0.67890284    -0.58400
O347        O  0.90343201  0.79254965  0.59297828    -0.48500
O348        O  0.85804395  0.74989538  0.63219482    -0.54800
C349        C  0.86780035  0.80925428  0.68958852     0.85200
O350        O  0.93446663  0.79194546  0.67530252    -0.56700
O351        O  0.91406119  0.75050415  0.59562334    -0.60000
In352      In  0.09740456  0.77028299  0.81532508     1.36900
C353        C  0.13484264  0.73032316  0.81684292     0.77700
O354        O  0.11846866  0.78445267  0.75826410    -0.60800
O355        O  0.11597067  0.81185831  0.80833301    -0.51700
C356        C  0.04880147  0.76910339  0.77773633     0.70300
O357        O  0.06456032  0.74860808  0.77930442    -0.46500
C358        C  0.08835534  0.77488376  0.89509095     0.75000
O359        O  0.11051494  0.72646577  0.80506597    -0.58400
O360        O  0.10004557  0.79311285  0.87427147    -0.48500
O361        O  0.13979660  0.75466311  0.82744492    -0.54800
C362        C  0.12513191  0.80743912  0.77310942     0.85200
O363        O  0.05783394  0.79009920  0.79575800    -0.56700
O364        O  0.08008624  0.75465764  0.87452124    -0.60000
In365      In  0.25087711  0.41088544  0.65655384     1.36900
C366        C  0.21077565  0.37373514  0.65431282     0.77700
O367        O  0.23391152  0.42577434  0.59661206    -0.60800
O368        O  0.27594118  0.41539359  0.59970752    -0.51700
C369        C  0.25047044  0.45862580  0.69610931     0.70300
O370        O  0.26893868  0.45206360  0.67106381    -0.46500
C371        C  0.28771974  0.38288528  0.69979008     0.75000
O372        O  0.20641023  0.39864023  0.66285907    -0.58400
O373        O  0.26787848  0.39534900  0.71601695    -0.48500
O374        O  0.23548779  0.36826700  0.64672593    -0.54800
C375        C  0.25624069  0.42309999  0.57761196     0.85200
O376        O  0.23180619  0.44086624  0.69996543    -0.56700
O377        O  0.28886491  0.38544176  0.66163923    -0.60000
In378      In  0.25890953  0.60880938  0.82510084     1.36900
C379        C  0.21983028  0.64708382  0.82361848     0.77700
O380        O  0.24317953  0.59003527  0.88287942    -0.60800
O381        O  0.28304620  0.60697057  0.88363654    -0.51700
C382        C  0.25653946  0.56100490  0.78587547     0.70300
O383        O  0.23578839  0.57197578  0.80195212    -0.46500
C384        C  0.29616140  0.63548578  0.78137224     0.75000
O385        O  0.21835939  0.62519652  0.80324621    -0.58400
O386        O  0.30086937  0.62704776  0.81709691    -0.48500
O387        O  0.24106235  0.64904165  0.84530687    -0.54800
C388        C  0.26413544  0.59560459  0.90370073     0.85200
O389        O  0.27854880  0.57400156  0.79138631    -0.56700
O390        O  0.27231548  0.63027287  0.76859812    -0.60000
In391      In  0.09089242  0.24820709  0.65959297     1.36900
C392        C  0.12898220  0.28732176  0.65773446     0.77700
O393        O  0.10863012  0.23019430  0.71627941    -0.60800
O394        O  0.11429717  0.20878451  0.66064728    -0.51700
C395        C  0.04371619  0.24833271  0.70096870     0.70300
O396        O  0.06112092  0.26742606  0.70387950    -0.46500
C397        C  0.07832067  0.24589439  0.58097336     0.75000
O398        O  0.10461980  0.29181956  0.66897302    -0.58400
O399        O  0.08450881  0.22492478  0.60155662    -0.48500
O400        O  0.13362400  0.26282827  0.64756771    -0.54800
C401        C  0.11867922  0.20960786  0.69841674     0.85200
O402        O  0.05018194  0.22987546  0.67588021    -0.56700
O403        O  0.07686404  0.26769579  0.60152436    -0.60000
In404      In  0.89341799  0.24396752  0.83124955     1.36900
C405        C  0.85562386  0.28371190  0.83513650     0.77700
O406        O  0.87361227  0.22919287  0.77337501    -0.60800
O407        O  0.87082136  0.20390453  0.82561145    -0.51700
C408        C  0.94142351  0.24668423  0.79197753     0.70300
O409        O  0.92716773  0.26757215  0.80010962    -0.46500
C410        C  0.90859018  0.23896675  0.90922246     0.75000
O411        O  0.85303490  0.26092842  0.85292328    -0.58400
O412        O  0.89810817  0.21954889  0.88915162    -0.48500
O413        O  0.87754060  0.28600541  0.81508215    -0.54800
C414        C  0.86445177  0.20725801  0.78874939     0.85200
O415        O  0.93101734  0.22440662  0.80415343    -0.56700
O416        O  0.91242787  0.26046317  0.88867144    -0.60000
C417        C  0.96795910  0.24783570  0.76958631    -0.00100
C418        C  0.97891583  0.22320859  0.75435551    -0.11900
C419        C  0.00347834  0.22286383  0.73228750     0.02200
C420        C  0.01789943  0.24761232  0.72503704    -0.00200
C421        C  0.00738150  0.27220307  0.74112621    -0.11900
C422        C  0.98257152  0.27259554  0.76284828     0.02100
H423        H  0.96813477  0.20401127  0.75941558     0.15000
H424        H  0.01830917  0.29131321  0.73608989     0.15000
C425        C  0.97277644  0.29873599  0.77772574     0.36700
C426        C  0.01363437  0.19658595  0.71851083     0.36600
N427        N  0.96492357  0.31973818  0.78944738    -0.43700
N428        N  0.02171032  0.17546976  0.70761457    -0.43700
C429        C  0.18925031  0.35218105  0.65398173    -0.00100
C430        C  0.19766013  0.32454539  0.65378818    -0.11900
C431        C  0.17857986  0.30310143  0.65510325     0.02200
C432        C  0.15019352  0.30910461  0.65622368    -0.00200
C433        C  0.14174030  0.33669565  0.65584245    -0.11900
C434        C  0.16086887  0.35816696  0.65466576     0.02100
H435        H  0.21935382  0.31956178  0.65350723     0.15000
H436        H  0.12002395  0.34157189  0.65622118     0.15000
C437        C  0.15056368  0.38596719  0.65348571     0.36700
C438        C  0.18898520  0.27531137  0.65706478     0.36600
N439        N  0.14202040  0.40815185  0.65247567    -0.43700
N440        N  0.19753549  0.25314463  0.65886460    -0.43700
C441        C  0.25115297  0.48489177  0.71916011    -0.00100
C442        C  0.27238821  0.50363531  0.71089199    -0.11900
C443        C  0.27439619  0.52858712  0.73182057     0.02200
C444        C  0.25509532  0.53510330  0.76238726    -0.00200
C445        C  0.23365475  0.51663122  0.77036804    -0.11900
C446        C  0.23151570  0.49172040  0.74924735     0.02100
H447        H  0.28742096  0.49896978  0.68760075     0.15000
H448        H  0.21861455  0.52153168  0.79355557     0.15000
C449        C  0.20900692  0.47371503  0.75951908     0.36700
C450        C  0.29566543  0.54759771  0.71969873     0.36600
N451        N  0.19089907  0.45939615  0.76788329    -0.43700
N452        N  0.31257696  0.56284681  0.70959569    -0.43700
C453        C  0.19837811  0.66860150  0.82201414    -0.00100
C454        C  0.17137020  0.66096278  0.81234281    -0.11900
C455        C  0.15023942  0.68047222  0.81090918     0.02200
C456        C  0.15612823  0.70850336  0.81825926    -0.00200
C457        C  0.18325574  0.71610830  0.82760998    -0.11900
C458        C  0.20424999  0.69654108  0.82974056     0.02100
H459        H  0.16660800  0.63952238  0.80670067     0.15000
H460        H  0.18820582  0.73750103  0.83322569     0.15000
C461        C  0.23172511  0.70594087  0.83869488     0.36700
C462        C  0.12270195  0.67085743  0.80311021     0.36600
N463        N  0.25372957  0.71348813  0.84586413    -0.43700
N464        N  0.10060438  0.66310157  0.79717718    -0.43700
C465        C  0.97201817  0.77074505  0.71212403    -0.00100
C466        C  0.98132335  0.74611392  0.72983403    -0.11900
C467        C  0.00615186  0.74500455  0.75133832     0.02200
C468        C  0.02223855  0.76897039  0.75573821    -0.00200
C469        C  0.01294339  0.79360434  0.73828951    -0.11900
C470        C  0.98826831  0.79469849  0.71644289     0.02100
H471        H  0.96909278  0.72759641  0.72715314     0.15000
H472        H  0.02525184  0.81206956  0.74118684     0.15000
C473        C  0.98050875  0.82069209  0.69858234     0.36700
C474        C  0.01398015  0.71921172  0.76976739     0.36600
N475        N  0.97435859  0.84153372  0.68422933    -0.43700
N476        N  0.02003168  0.69847261  0.78453073    -0.43700
C477        C  0.79183025  0.34536737  0.83809305    -0.00100
C478        C  0.81874073  0.35268764  0.82721775    -0.11900
C479        C  0.83995876  0.33324149  0.82705794     0.02200
C480        C  0.83437494  0.30556421  0.83722056    -0.00200
C481        C  0.80765560  0.29840028  0.84927892    -0.11900
C482        C  0.78650021  0.31790828  0.84997008     0.02100
H483        H  0.82331917  0.37378234  0.81895212     0.15000
H484        H  0.80309333  0.27730439  0.85755042     0.15000
C485        C  0.75947011  0.30884020  0.86203592     0.36700
C486        C  0.86736414  0.34253757  0.81757388     0.36600
N487        N  0.73781727  0.30161565  0.87178811    -0.43700
N488        N  0.88937213  0.34999519  0.81027073    -0.43700
C489        C  0.83865906  0.70805108  0.65969333    -0.00100
C490        C  0.83972047  0.68939212  0.69241708    -0.11900
C491        C  0.81997780  0.66855509  0.69682928     0.02200
C492        C  0.79870830  0.66591267  0.66781518    -0.00200
C493        C  0.79763637  0.68460623  0.63531391    -0.11900
C494        C  0.81717380  0.70543880  0.63096217     0.02100
H495        H  0.85581426  0.69129449  0.71505227     0.15000
H496        H  0.78147234  0.68283019  0.61273816     0.15000
C497        C  0.81454988  0.72351792  0.59630641     0.36700
C498        C  0.82148786  0.65103669  0.73224150     0.36600
N499        N  0.81228119  0.73793838  0.56848746    -0.43700
N500        N  0.82272789  0.63719309  0.76083755    -0.43700
C501        C  0.73799951  0.52962156  0.72707093    -0.00100
C502        C  0.71298913  0.51528126  0.72925470    -0.11900
C503        C  0.71106042  0.48984756  0.74897244     0.02200
C504        C  0.73445969  0.47820460  0.76762560    -0.00200
C505        C  0.75962367  0.49218254  0.76484735    -0.11900
C506        C  0.76160149  0.51765781  0.74498838     0.02100
H507        H  0.69472328  0.52389219  0.71531829     0.15000
H508        H  0.77778871  0.48339243  0.77882641     0.15000
C509        C  0.78809277  0.53094699  0.74384851     0.36700
C510        C  0.68498946  0.47572136  0.74822409     0.36600
N511        N  0.80933509  0.54157935  0.74295142    -0.43700
N512        N  0.66421843  0.46419113  0.74754265    -0.43700
C513        C  0.26908757  0.59053772  0.03441994    -0.00100
C514        C  0.24464256  0.58331031  0.01449360    -0.11900
C515        C  0.24283387  0.58334656  0.97200222     0.02200
C516        C  0.26596323  0.59070745  0.94830681    -0.00200
C517        C  0.29099897  0.59577873  0.96823461    -0.11900
C518        C  0.29279973  0.59562088  0.01080126     0.02100
H519        H  0.22636687  0.57890744  0.03214651     0.15000
H520        H  0.30911292  0.60076834  0.95056774     0.15000
C521        C  0.31913237  0.60125385  0.02921040     0.36700
C522        C  0.21647488  0.57716678  0.95409465     0.36600
N523        N  0.34022413  0.60569778  0.04403516    -0.43700
N524        N  0.19525341  0.57222891  0.94004856    -0.43700
C525        C  0.25949893  0.42789038  0.44628761    -0.00100
C526        C  0.28369313  0.42369773  0.46874244    -0.11900
C527        C  0.28349675  0.42336050  0.51140050     0.02200
C528        C  0.25857775  0.42721995  0.53278588    -0.00200
C529        C  0.23470194  0.43310186  0.51036746    -0.11900
C530        C  0.23491376  0.43353260  0.46769341     0.02100
H531        H  0.30281047  0.41975271  0.45292794     0.15000
H532        H  0.21546328  0.43644692  0.52615580     0.15000
C533        C  0.20925458  0.43872075  0.44703057     0.36700
C534        C  0.30914022  0.41816719  0.53206927     0.36600
N535        N  0.18866278  0.44289218  0.43056500    -0.43700
N536        N  0.32971101  0.41397687  0.54857469    -0.43700
C537        C  0.25997276  0.48270560  0.25730333    -0.00100
C538        C  0.28295975  0.49989472  0.26141370    -0.11900
C539        C  0.28444129  0.52511295  0.24120017     0.02200
C540        C  0.26249873  0.53374595  0.21618176    -0.00200
C541        C  0.23957351  0.51655361  0.21166385    -0.11900
C542        C  0.23823598  0.49107466  0.23146106     0.02100
H543        H  0.29985482  0.49379989  0.28091730     0.15000
H544        H  0.22277110  0.52287842  0.19213449     0.15000
C545        C  0.21444725  0.47406456  0.22408847     0.36700
C546        C  0.30828840  0.54209943  0.24823593     0.36600
N547        N  0.19539795  0.46049142  0.21782046    -0.40500
N548        N  0.32741574  0.55563712  0.25409102    -0.43700
C549        C  0.91383530  0.23721620  0.95376534    -0.00100
C550        C  0.90299882  0.21478836  0.97539668    -0.11900
C551        C  0.90273650  0.21443971  0.01801826     0.02200
C552        C  0.91321697  0.23709179  0.04006581    -0.00200
C553        C  0.92629493  0.25833104  0.01848694    -0.11900
C554        C  0.92689748  0.25849515  0.97583195     0.02100
H555        H  0.89362550  0.19786936  0.95902035     0.15000
H556        H  0.93527940  0.27544424  0.03489393     0.15000
C557        C  0.94082024  0.28094734  0.95581554     0.36700
C558        C  0.89117763  0.19069564  0.03805413     0.36600
N559        N  0.95217528  0.29890690  0.93999717    -0.43700
N560        N  0.88203052  0.17160034  0.05409678    -0.43700
C561        C  0.07777486  0.24318774  0.45004183    -0.00100
C562        C  0.07093604  0.26767954  0.47024611    -0.11900
C563        C  0.06960963  0.26887608  0.51271929     0.02200
C564        C  0.07498381  0.24504691  0.53608453    -0.00200
C565        C  0.07996406  0.22012536  0.51576032    -0.11900
C566        C  0.08144258  0.21897201  0.47325151     0.02100
H567        H  0.06775894  0.28639318  0.45291435     0.15000
H568        H  0.08378513  0.20156034  0.53314700     0.15000
C569        C  0.08737494  0.19274619  0.45465914     0.36700
C570        C  0.06374911  0.29515422  0.53118311     0.36600
N571        N  0.09212630  0.17168167  0.43991418    -0.43700
N572        N  0.05912454  0.31623758  0.54595145    -0.43700
C573        C  0.15664097  0.31080043  0.33173327    -0.00100
C574        C  0.15088130  0.33606757  0.31286178    -0.11900
C575        C  0.17043895  0.35712595  0.31156134     0.02200
C576        C  0.19688151  0.35271019  0.32811207    -0.00200
C577        C  0.20242925  0.32764367  0.34766100    -0.11900
C578        C  0.18257765  0.30699640  0.35028503     0.02100
H579        H  0.13086426  0.33955520  0.29935723     0.15000
H580        H  0.22238586  0.32412984  0.36134795     0.15000
C581        C  0.18962059  0.28235913  0.37251385     0.36700
C582        C  0.16242602  0.38305190  0.29372724     0.36600
N583        N  0.19535343  0.26283890  0.39078845    -0.43700
N584        N  0.15579151  0.40389109  0.27984621    -0.43700
C585        C  0.02402490  0.25043095  0.26579032    -0.00100
C586        C  0.01296495  0.22520351  0.25295539    -0.11900
C587        C  0.98804570  0.22396906  0.23185521     0.02200
C588        C  0.97352628  0.24843690  0.22312478    -0.00200
C589        C  0.98453846  0.27365718  0.23589778    -0.11900
C590        C  0.00952938  0.27491489  0.25684805     0.02100
H591        H  0.02375696  0.20622688  0.25955440     0.15000
H592        H  0.97363465  0.29257605  0.22933896     0.15000
C593        C  0.01941922  0.30167189  0.26893200     0.36700
C594        C  0.97761898  0.19717892  0.22088323     0.36600
N595        N  0.02721112  0.32319418  0.27848722    -0.43700
N596        N  0.96934624  0.17565124  0.21227791    -0.43700
C597        C  0.08609300  0.77456487  0.02624378    -0.00100
C598        C  0.09438039  0.79839589  0.00543313    -0.11900
C599        C  0.09415513  0.79954760  0.96282537     0.02200
C600        C  0.08576902  0.77631483  0.94005707    -0.00200
C601        C  0.07609950  0.75308125  0.96095446    -0.11900
C602        C  0.07590245  0.75210900  0.00349181     0.02100
H603        H  0.10176759  0.81600646  0.02242893     0.15000
H604        H  0.06906601  0.73529251  0.94402760     0.15000
C605        C  0.06481755  0.72785034  0.02275726     0.36700
C606        C  0.10277023  0.82481226  0.94355383     0.36600
N607        N  0.05572496  0.70851511  0.03822500    -0.43700
N608        N  0.10952357  0.84507775  0.92804086    -0.43700
C609        C  0.16080391  0.70815607  0.15506116    -0.00100
C610        C  0.18677607  0.71428129  0.13892043    -0.11900
C611        C  0.20807876  0.69504972  0.13978117     0.02200
C612        C  0.20351292  0.66862034  0.15638219    -0.00200
C613        C  0.17769848  0.66258269  0.17315098    -0.11900
C614        C  0.15647762  0.68202829  0.17290472     0.02100
H615        H  0.19066910  0.73438566  0.12586098     0.15000
H616        H  0.17400029  0.64251827  0.18646708     0.15000
C617        C  0.13079127  0.67458797  0.19183369     0.36700
C618        C  0.23461940  0.70363059  0.12489879     0.36600
N619        N  0.11029339  0.66863185  0.20727335    -0.43700
N620        N  0.25585919  0.71078299  0.11323774    -0.43700
C621        C  0.91886232  0.77361558  0.44319040    -0.00100
C622        C  0.92586812  0.74955643  0.46451467    -0.11900
C623        C  0.92562397  0.74876268  0.50717896     0.02200
C624        C  0.91786231  0.77239098  0.52950416    -0.00200
C625        C  0.91294568  0.79694665  0.50820304    -0.11900
C626        C  0.91343488  0.79782146  0.46565215     0.02100
H627        H  0.93071301  0.73095664  0.44783782     0.15000
H628        H  0.90765097  0.81546830  0.52477852     0.15000
C629        C  0.90751194  0.82378977  0.44620823     0.36700
C630        C  0.93292279  0.72323036  0.52683037     0.36600
N631        N  0.90275988  0.84463221  0.43073349    -0.43700
N632        N  0.93895501  0.70273045  0.54233123    -0.43700
C633        C  0.97838468  0.76830729  0.25689256    -0.00100
C634        C  0.98607662  0.74449815  0.23560429    -0.11900
C635        C  0.01019728  0.74372228  0.21256714     0.02200
C636        C  0.02711765  0.76723111  0.21033374    -0.00200
C637        C  0.01935064  0.79110442  0.23128817    -0.11900
C638        C  0.99532927  0.79186458  0.25449845     0.02100
H639        H  0.97317026  0.72635456  0.23687112     0.15000
H640        H  0.03224016  0.80926171  0.22981764     0.15000
C641        C  0.98835668  0.81739002  0.27438409     0.36700
C642        C  0.01644200  0.71886194  0.19045442     0.36600
N643        N  0.98280787  0.83790555  0.29016999    -0.43700
N644        N  0.02127743  0.69891722  0.17268284    -0.43700
C645        C  0.72590294  0.42138691  0.04056081    -0.00100
C646        C  0.74470667  0.43737907  0.01837086    -0.11900
C647        C  0.74412516  0.43814515  0.97572832     0.02200
C648        C  0.72420436  0.42277355  0.95419734    -0.00200
C649        C  0.70410589  0.40854754  0.97647495    -0.11900
C650        C  0.70487594  0.40748694  0.01905759     0.02100
H651        H  0.76070266  0.44854794  0.03428480     0.15000
H652        H  0.68845109  0.39691187  0.96054488     0.15000
C653        C  0.68446829  0.39087006  0.03931428     0.36700
C654        C  0.76478009  0.45427865  0.95519194     0.36600
N655        N  0.66811446  0.37735188  0.05518074    -0.43700
N656        N  0.78142732  0.46724090  0.93898779    -0.43700
C657        C  0.80935558  0.35962893  0.17511688    -0.00100
C658        C  0.81117578  0.34179791  0.20874324    -0.11900
C659        C  0.83078107  0.32068113  0.21017402     0.02200
C660        C  0.84966855  0.31750250  0.17781372    -0.00200
C661        C  0.84882912  0.33632952  0.14543871    -0.11900
C662        C  0.82883826  0.35692069  0.14347281     0.02100
H663        H  0.79636917  0.34346006  0.23322136     0.15000
H664        H  0.86317015  0.33425743  0.12041167     0.15000
C665        C  0.82810808  0.37378268  0.10732160     0.36700
C666        C  0.82959382  0.30164306  0.24387583     0.36600
N667        N  0.82747209  0.38698826  0.07803708    -0.43700
N668        N  0.82829109  0.28637317  0.27082899    -0.43700
C669        C  0.73234286  0.59246357  0.45899389    -0.00100
C670        C  0.75306254  0.57847197  0.48040387    -0.11900
C671        C  0.75325681  0.57751661  0.52309728     0.02200
C672        C  0.73265724  0.59132501  0.54551789    -0.00200
C673        C  0.71101747  0.60381343  0.52402128    -0.11900
C674        C  0.71055621  0.60435283  0.48136031     0.02100
H675        H  0.76956535  0.56865282  0.46373008     0.15000
H676        H  0.69474370  0.61409330  0.54057063     0.15000
C677        C  0.68808174  0.61848257  0.46173202     0.36700
C678        C  0.77506868  0.56245012  0.54278881     0.36600
N679        N  0.66999866  0.62978298  0.44615227    -0.43700
N680        N  0.79249881  0.55021197  0.55844626    -0.43700
C681        C  0.80506989  0.66576236  0.32880481    -0.00100
C682        C  0.80269617  0.68962145  0.35266888    -0.11900
C683        C  0.82265038  0.71030193  0.35140938     0.02200
C684        C  0.84565583  0.70753033  0.32557256    -0.00200
C685        C  0.84823971  0.68366739  0.30192203    -0.11900
C686        C  0.82824405  0.66293536  0.30314930     0.02100
H687        H  0.78522262  0.69214106  0.37273251     0.15000
H688        H  0.86578707  0.68133312  0.28194128     0.15000
C689        C  0.83209152  0.63921909  0.27741756     0.36700
C690        C  0.81945996  0.73366422  0.37813576     0.36600
N691        N  0.83518389  0.62021816  0.25676149    -0.43700
N692        N  0.81723338  0.75243076  0.39950443    -0.43700
C693        C  0.74204629  0.53281445  0.27418896    -0.00100
C694        C  0.76664055  0.51792937  0.27009275    -0.11900
C695        C  0.76780802  0.49361195  0.24714569     0.02200
C696        C  0.74381905  0.48332061  0.22823684    -0.00200
C697        C  0.71935643  0.49836215  0.23196642    -0.11900
C698        C  0.71827816  0.52288975  0.25417280     0.02100
H699        H  0.78521969  0.52550017  0.28442862     0.15000
H700        H  0.70082292  0.49100116  0.21723563     0.15000
C701        C  0.69263685  0.53778094  0.25433211     0.36700
C702        C  0.79415890  0.48047601  0.24210383     0.36600
N703        N  0.67208693  0.54971072  0.25402339    -0.43700
N704        N  0.81535892  0.47016490  0.23773688    -0.43700
C705        C  0.13510122  0.18857128  0.71958687    -0.00100
C706        C  0.15549128  0.17470581  0.69764432    -0.11900
C707        C  0.17308400  0.15609348  0.71684260     0.02200
C708        C  0.17026454  0.15093299  0.75901609    -0.00200
C709        C  0.14896648  0.16389478  0.78049611    -0.11900
C710        C  0.13149286  0.18264104  0.76125071     0.02100
H711        H  0.15823031  0.17900260  0.66549161     0.15000
H712        H  0.14632207  0.15992452  0.81274358     0.15000
C713        C  0.10977754  0.19511468  0.78475687     0.36700
C714        C  0.19384032  0.14288495  0.69233702     0.36600
N715        N  0.09227445  0.20511500  0.80336568    -0.43700
N716        N  0.21044326  0.13236988  0.67257254    -0.43700
C717        C  0.17983929  0.86178948  0.70888912    -0.00100
C718        C  0.17862885  0.86239859  0.75154987    -0.11900
C719        C  0.16069576  0.84524871  0.77299543     0.02200
C720        C  0.14321319  0.82708206  0.75163723    -0.00200
C721        C  0.14436887  0.82642690  0.70901641    -0.11900
C722        C  0.16242306  0.84350240  0.68754350     0.02100
H723        H  0.19208577  0.87604066  0.76837388     0.15000
H724        H  0.13133840  0.81226699  0.69238933     0.15000
C725        C  0.16339335  0.84081623  0.64382433     0.36700
C726        C  0.16207797  0.84552552  0.81691351     0.36600
N727        N  0.16424487  0.83857844  0.60879821    -0.43700
N728        N  0.16337602  0.84559014  0.85207447    -0.43700
C729        C  0.23417613  0.98409474  0.71275545    -0.00100
C730        C  0.20889654  0.99191834  0.72975441    -0.11900
C731        C  0.20641643  0.01584591  0.75328098     0.02200
C732        C  0.22962160  0.03276031  0.76000765    -0.00200
C733        C  0.25474653  0.02516937  0.74221026    -0.11900
C734        C  0.25723407  0.00119189  0.71892868     0.02100
H735        H  0.19098229  0.97905846  0.72514328     0.15000
H736        H  0.27270309  0.03801066  0.74652617     0.15000
C737        C  0.28358501  0.99516791  0.70095175     0.36700
C738        C  0.17968962  0.02245759  0.76949352     0.36600
N739        N  0.30473850  0.99047735  0.68655370    -0.43700
N740        N  0.15814409  0.02750233  0.78227124    -0.43700
C741        C  0.34293262  0.32816257  0.76274005    -0.00100
C742        C  0.32649172  0.34638851  0.78525102    -0.11900
C743        C  0.30888107  0.36503961  0.76575290     0.02200
C744        C  0.30746965  0.36558032  0.72274540    -0.00200
C745        C  0.32481204  0.34817381  0.70044018    -0.11900
C746        C  0.34245496  0.32972240  0.71983836     0.02100
H747        H  0.32698123  0.34574604  0.81820817     0.15000
H748        H  0.32434052  0.34859579  0.66746659     0.15000
C749        C  0.36007335  0.31301061  0.69465514     0.36700
C750        C  0.29282351  0.38337838  0.79077704     0.36600
N751        N  0.37424579  0.29972222  0.67440883    -0.43700
N752        N  0.28012796  0.39809580  0.81103040    -0.43700
C753        C  0.28855755  0.16604421  0.82494888    -0.00100
C754        C  0.28196088  0.19241096  0.83945923    -0.11900
C755        C  0.30125300  0.21377786  0.83906549     0.02200
C756        C  0.32815775  0.20889548  0.82452882    -0.00200
C757        C  0.33473664  0.18258163  0.80998043    -0.11900
C758        C  0.31534962  0.16131170  0.80990056     0.02100
H759        H  0.26144741  0.19656786  0.85064290     0.15000
H760        H  0.35521576  0.17851162  0.79858764     0.15000
C761        C  0.32369544  0.13501628  0.79378865     0.36700
C762        C  0.29233677  0.24065122  0.85227923     0.36600
N763        N  0.33043769  0.11400224  0.78069412    -0.43700
N764        N  0.28500681  0.26217700  0.86259013    -0.43700
C765        C  0.63628907  0.32622151  0.71910359    -0.00100
C766        C  0.63127296  0.33141062  0.76040628    -0.11900
C767        C  0.64882471  0.34823317  0.78328503     0.02200
C768        C  0.67235663  0.36001454  0.76494445    -0.00200
C769        C  0.67719698  0.35496231  0.72346925    -0.11900
C770        C  0.65947412  0.33838188  0.70051564     0.02100
H771        H  0.61358730  0.32215286  0.77500007     0.15000
H772        H  0.69513152  0.36373701  0.70890165     0.15000
C773        C  0.66651001  0.33313635  0.65855074     0.36700
C774        C  0.64243786  0.35218544  0.82575637     0.36600
N775        N  0.67232730  0.32894058  0.62499301    -0.43700
N776        N  0.63715674  0.35524968  0.85977208    -0.43700
C777        C  0.51321263  0.26712854  0.71711826    -0.00100
C778        C  0.49854127  0.29184374  0.72131198    -0.11900
C779        C  0.47361803  0.29293175  0.74253428     0.02200
C780        C  0.46256114  0.26879829  0.76014362    -0.00200
C781        C  0.47693358  0.24396196  0.75537395    -0.11900
C782        C  0.50201293  0.24291464  0.73437885     0.02100
H783        H  0.50666007  0.31060389  0.70817430     0.15000
H784        H  0.46870114  0.22524622  0.76848615     0.15000
C785        C  0.51547596  0.21658845  0.73090859     0.36700
C786        C  0.45971843  0.31910785  0.74485771     0.36600
N787        N  0.52612415  0.19539864  0.72829820    -0.43700
N788        N  0.44865360  0.34012482  0.74660771    -0.43700
C789        C  0.81547491  0.86779397  0.75079013    -0.00100
C790        C  0.83411429  0.85174378  0.77308740    -0.11900
C791        C  0.85173608  0.83318685  0.75383757     0.02200
C792        C  0.85108745  0.83030461  0.71102997    -0.00200
C793        C  0.83338886  0.84730272  0.68843838    -0.11900
C794        C  0.81566324  0.86590661  0.70778920     0.02100
H795        H  0.83449559  0.85310754  0.80602021     0.15000
H796        H  0.83288473  0.84561704  0.65554767     0.15000
C797        C  0.79789058  0.88255087  0.68263263     0.36700
C798        C  0.87019821  0.81741823  0.77910653     0.36600
N799        N  0.78370545  0.89590303  0.66241309    -0.43700
N800        N  0.88500288  0.80477588  0.79933253    -0.43700
C801        C  0.81183542  0.15359492  0.71897406    -0.00100
C802        C  0.81311120  0.15100436  0.76140881    -0.11900
C803        C  0.83065628  0.16747077  0.78464944     0.02200
C804        C  0.84721437  0.18755441  0.76542268    -0.00200
C805        C  0.84639430  0.18968093  0.72274749    -0.11900
C806        C  0.82913584  0.17281425  0.69944828     0.02100
H807        H  0.80005891  0.13616192  0.77667505     0.15000
H808        H  0.85907002  0.20481386  0.70746011     0.15000
C809        C  0.82881413  0.17654459  0.65583680     0.36700
C810        C  0.83030711  0.16366158  0.82819961     0.36600
N811        N  0.82855533  0.17945593  0.62088488    -0.43700
N812        N  0.82976821  0.16023743  0.86303299    -0.43700
C813        C  0.68932059  0.16837031  0.65148721    -0.00100
C814        C  0.69676918  0.19612694  0.65541337    -0.11900
C815        C  0.67691970  0.21686659  0.65650716     0.02200
C816        C  0.64877168  0.20998928  0.65378467    -0.00200
C817        C  0.64131700  0.18230328  0.64902179    -0.11900
C818        C  0.66126278  0.16157749  0.64729824     0.02100
H819        H  0.71822753  0.20169144  0.65847250     0.15000
H820        H  0.61983378  0.17686149  0.64587496     0.15000
C821        C  0.65237374  0.13376824  0.63951922     0.36700
C822        C  0.68615978  0.24484254  0.66205078     0.36600
N823        N  0.64529882  0.11151109  0.63287472    -0.43700
N824        N  0.69369182  0.26719616  0.66656404    -0.43700
C825        C  0.74925417  0.03638709  0.71845473    -0.00100
C826        C  0.74859108  0.03601519  0.76118742    -0.11900
C827        C  0.74951712  0.01105498  0.78256956     0.02200
C828        C  0.75032069  0.98600616  0.76095291    -0.00200
C829        C  0.74999783  0.98642334  0.71832167    -0.11900
C830        C  0.74980496  0.01128453  0.69701214     0.02100
H831        H  0.74802868  0.05522803  0.77785231     0.15000
H832        H  0.75050216  0.96723730  0.70155677     0.15000
C833        C  0.74949787  0.01043515  0.65310091     0.36700
C834        C  0.74903498  0.01161098  0.82650934     0.36600
N835        N  0.74922911  0.00984365  0.61791073    -0.43700
N836        N  0.74865727  0.01187086  0.86171602    -0.43700
C837        C  0.64107329  0.68234622  0.77713568    -0.00100
C838        C  0.66556411  0.67505360  0.79685165    -0.11900
C839        C  0.68467277  0.65770176  0.77808746     0.02200
C840        C  0.67939465  0.64742053  0.73853486    -0.00200
C841        C  0.65396467  0.65327977  0.72020295    -0.11900
C842        C  0.63481859  0.67041092  0.73920379     0.02100
H843        H  0.67033772  0.68383659  0.82635737     0.15000
H844        H  0.64914003  0.64488065  0.69048406     0.15000
C845        C  0.60868203  0.67499706  0.71958099     0.36700
C846        C  0.70963175  0.65143708  0.79994921     0.36600
N847        N  0.58758743  0.67855982  0.70425383    -0.43700
N848        N  0.72956804  0.64635936  0.81759200    -0.43700
C849        C  0.65459272  0.80895059  0.82468550    -0.00100
C850        C  0.64688332  0.83577269  0.81357963    -0.11900
C851        C  0.66624880  0.85708208  0.81166107     0.02200
C852        C  0.69414374  0.85164827  0.82053227    -0.00200
C853        C  0.70166531  0.82499212  0.83253466    -0.11900
C854        C  0.68235238  0.80384677  0.83505327     0.02100
H855        H  0.62564522  0.84015180  0.80615551     0.15000
H856        H  0.72284967  0.82052991  0.84022408     0.15000
C857        C  0.69189047  0.77733713  0.84901927     0.36700
C858        C  0.65674969  0.88418675  0.80060452     0.36600
N859        N  0.69968089  0.75621433  0.86042263    -0.43700
N860        N  0.64909637  0.90592976  0.79188652    -0.43700
C861        C  0.35500185  0.68433911  0.71548362    -0.00100
C862        C  0.33110119  0.67525616  0.69583945    -0.11900
C863        C  0.31199566  0.65867930  0.71605679     0.02200
C864        C  0.31680880  0.65068022  0.75691041    -0.00200
C865        C  0.34172757  0.65817857  0.77540317    -0.11900
C866        C  0.36075105  0.67482316  0.75513118     0.02100
H867        H  0.32666142  0.68217025  0.66513111     0.15000
H868        H  0.34614326  0.65161483  0.80627112     0.15000
C869        C  0.38607136  0.68168376  0.77559358     0.36700
C870        C  0.28746177  0.65091339  0.69419165     0.36600
N871        N  0.40645781  0.68713700  0.79176742    -0.43700
N872        N  0.26782069  0.64478836  0.67656245    -0.43700
C873        C  0.33925171  0.80835728  0.65750505    -0.00100
C874        C  0.34705449  0.83605666  0.66130303    -0.11900
C875        C  0.32753251  0.85724261  0.65983430     0.02200
C876        C  0.29945807  0.85091044  0.65452425    -0.00200
C877        C  0.29167024  0.82327389  0.65040644    -0.11900
C878        C  0.31107810  0.80208552  0.65207958     0.02100
H879        H  0.36854621  0.84127096  0.66505200     0.15000
H880        H  0.27017326  0.81810903  0.64644463     0.15000
C881        C  0.30122697  0.77414885  0.64876087     0.36700
C882        C  0.33706831  0.88528442  0.66224132     0.36600
N883        N  0.29348578  0.75171877  0.64622430    -0.43700
N884        N  0.34474814  0.90776187  0.66399280    -0.43700
C885        C  0.47199403  0.75038416  0.72217381    -0.00100
C886        C  0.49664898  0.74984365  0.70018372    -0.11900
C887        C  0.52204808  0.74968390  0.72017010     0.02200
C888        C  0.52304042  0.74946565  0.76316971    -0.00200
C889        C  0.49831114  0.74972827  0.78511376    -0.11900
C890        C  0.47293585  0.75055791  0.76508206     0.02100
H891        H  0.49606710  0.74961493  0.66718708     0.15000
H892        H  0.49879279  0.74951541  0.81810983     0.15000
C893        C  0.44819994  0.75065252  0.78926031     0.36700
C894        C  0.54662755  0.74868117  0.69569674     0.36600
N895        N  0.42832882  0.75082078  0.80852135    -0.43700
N896        N  0.56627252  0.74785657  0.67596792    -0.43700
C897        C  0.18009498  0.15590269  0.22394747    -0.00100
C898        C  0.16264240  0.17339615  0.20185142    -0.11900
C899        C  0.14506789  0.19175277  0.22159612     0.02200
C900        C  0.14484365  0.19301476  0.26449830    -0.00200
C901        C  0.16173943  0.17505600  0.28669193    -0.11900
C902        C  0.17923564  0.15655523  0.26693149     0.02100
H903        H  0.16281003  0.17290749  0.16884998     0.15000
H904        H  0.16149163  0.17563666  0.31968808     0.15000
C905        C  0.19537886  0.13805916  0.29163081     0.36700
C906        C  0.12677775  0.20820222  0.19700219     0.36600
N907        N  0.20813380  0.12314303  0.31153613    -0.43700
N908        N  0.11199214  0.22117869  0.17721083    -0.43700
C909        C  0.22613661  0.09213376  0.03482154    -0.00100
C910        C  0.25069494  0.08912632  0.01299612    -0.11900
C911        C  0.25101442  0.08915291  0.97052774     0.02200
C912        C  0.22620279  0.09206116  0.94858940    -0.00200
C913        C  0.20141982  0.09388204  0.97033387    -0.11900
C914        C  0.20112803  0.09371941  0.01303111     0.02100
H915        H  0.27007366  0.08781154  0.02914762     0.15000
H916        H  0.18219016  0.09579835  0.95395032     0.15000
C917        C  0.17489265  0.09511152  0.03334383     0.36700
C918        C  0.27744502  0.08777143  0.95078041     0.36600
N919        N  0.15378648  0.09600610  0.04942512    -0.43700
N920        N  0.29875883  0.08674111  0.93534786    -0.43700
C921        C  0.14586485  0.82548690  0.21733791    -0.00100
C922        C  0.16085150  0.84518574  0.19545397    -0.11900
C923        C  0.17926148  0.86283211  0.21488888     0.02200
C924        C  0.18289007  0.86119962  0.25750058    -0.00200
C925        C  0.16685184  0.84245449  0.27975228    -0.11900
C926        C  0.14856246  0.82457788  0.26017663     0.02100
H927        H  0.15881444  0.84636692  0.16262454     0.15000
H928        H  0.16914186  0.84117051  0.31252687     0.15000
C929        C  0.13316823  0.80547336  0.28490958     0.36700
C930        C  0.19419499  0.88213625  0.18991479     0.36600
N931        N  0.12089356  0.79017286  0.30481779    -0.43700
N932        N  0.20609887  0.89747882  0.16960199    -0.43700
C933        C  0.23656509  0.92779550  0.52692984    -0.00100
C934        C  0.21199993  0.92334831  0.50549916    -0.11900
C935        C  0.21155677  0.92237761  0.46292545     0.02200
C936        C  0.23617398  0.92598653  0.44070577    -0.00200
C937        C  0.26029865  0.93251920  0.46203677    -0.11900
C938        C  0.26073754  0.93350942  0.50461248     0.02100
H939        H  0.19316418  0.91939605  0.52205446     0.15000
H940        H  0.27925502  0.93586220  0.44548992     0.15000
C941        C  0.28659417  0.93949054  0.52420705     0.36700
C942        C  0.18569667  0.91643366  0.44329654     0.36600
N943        N  0.30738587  0.94430910  0.53968836    -0.43700
N944        N  0.16498105  0.91160585  0.42759561    -0.43700
C945        C  0.23732628  0.03178047  0.21456570    -0.00100
C946        C  0.26301849  0.02163968  0.22710413    -0.11900
C947        C  0.26535415  0.99682215  0.24855900     0.02200
C948        C  0.24156189  0.98148997  0.25811046    -0.00200
C949        C  0.21591937  0.99149792  0.24524421    -0.11900
C950        C  0.21357568  0.01619748  0.22362093     0.02100
H951        H  0.28146532  0.03325518  0.22045737     0.15000
H952        H  0.19746754  0.97988212  0.25189293     0.15000
C953        C  0.18642291  0.02480458  0.21139257     0.36700
C954        C  0.29242210  0.98806143  0.26089928     0.36600
N955        N  0.16459295  0.03153231  0.20168448    -0.43700
N956        N  0.31418063  0.98116498  0.27069335    -0.43700
C957        C  0.35224696  0.32666566  0.21897960    -0.00100
C958        C  0.33401529  0.34306672  0.19653948    -0.11900
C959        C  0.31630654  0.36153139  0.21589279     0.02200
C960        C  0.31657897  0.36378893  0.25880889    -0.00200
C961        C  0.33573537  0.34827099  0.28106280    -0.11900
C962        C  0.35351097  0.32987332  0.26161843     0.02100
H963        H  0.33321309  0.34110435  0.16367063     0.15000
H964        H  0.33655544  0.35013996  0.31393386     0.15000
C965        C  0.37341787  0.31528806  0.28600713     0.36700
C966        C  0.29858772  0.37818987  0.19069229     0.36600
N967        N  0.38952653  0.30379975  0.30554148    -0.43700
N968        N  0.28459711  0.39156514  0.17021898    -0.43700
C969        C  0.40880674  0.27437351  0.94586876    -0.00100
C970        C  0.41742663  0.25045093  0.96618496    -0.11900
C971        C  0.41907348  0.24948337  0.00871411     0.02200
C972        C  0.41183810  0.27285398  0.03194675    -0.00200
C973        C  0.40490154  0.29724634  0.01150940    -0.11900
C974        C  0.40339459  0.29827522  0.96903788     0.02100
H975        H  0.42202781  0.23204867  0.94889058     0.15000
H976        H  0.39968662  0.31547990  0.02882358     0.15000
C977        C  0.39511846  0.32392708  0.95057633     0.36700
C978        C  0.42713801  0.22384567  0.02739555     0.36600
N979        N  0.38845892  0.34452130  0.93593879    -0.43700
N980        N  0.43363739  0.20329273  0.04231456    -0.43700
C981        C  0.29680148  0.16633953  0.15533806    -0.00100
C982        C  0.32176854  0.16080496  0.17525702    -0.11900
C983        C  0.34308517  0.18021054  0.17598419     0.02200
C984        C  0.33953647  0.20597076  0.15671440    -0.00200
C985        C  0.31473462  0.21129682  0.13642834    -0.11900
C986        C  0.29354970  0.19196493  0.13548346     0.02100
H987        H  0.32474628  0.14117577  0.19026748     0.15000
H988        H  0.31164722  0.23090779  0.12138535     0.15000
C989        C  0.26870003  0.19951058  0.11424064     0.36700
C990        C  0.36839294  0.17278197  0.19605874     0.36600
N991        N  0.24892673  0.20583375  0.09709084    -0.43700
N992        N  0.38865764  0.16664906  0.21206448    -0.43700
C993        C  0.64131303  0.32746249  0.25755554    -0.00100
C994        C  0.65578283  0.31723663  0.22390466    -0.11900
C995        C  0.67478178  0.33345827  0.20301806     0.02200
C996        C  0.67933175  0.36097397  0.21520091    -0.00200
C997        C  0.66394237  0.37161803  0.24775347    -0.11900
C998        C  0.64522999  0.35518319  0.26911404     0.02100
H999        H  0.65300951  0.29603470  0.21458763     0.15000
H1000       H  0.66702222  0.39271398  0.25735120     0.15000
C1001       C  0.63077136  0.36738394  0.30292549     0.36700
C1002       C  0.68974223  0.32074529  0.17011672     0.36600
N1003       N  0.61936590  0.37736139  0.33003044    -0.43700
N1004       N  0.70172321  0.31028275  0.14398140    -0.43700
C1005       C  0.57790777  0.27642157  0.44651886    -0.00100
C1006       C  0.56778253  0.25293604  0.46637590    -0.11900
C1007       C  0.56529337  0.25204420  0.50879924     0.02200
C1008       C  0.57357510  0.27483701  0.53246602    -0.00200
C1009       C  0.58191940  0.29895975  0.51249111    -0.11900
C1010       C  0.58394439  0.30004371  0.47001279     0.02100
H1011       H  0.56229151  0.23490019  0.44881442     0.15000
H1012       H  0.58779728  0.31683570  0.53013784     0.15000
C1013       C  0.59239889  0.32568856  0.45173692     0.36700
C1014       C  0.55393006  0.22753023  0.52696575     0.36600
N1015       N  0.59899666  0.34634152  0.43723452    -0.43700
N1016       N  0.54455390  0.20795858  0.54137534    -0.43700
C1017       C  0.52157530  0.27094878  0.26076571    -0.00100
C1018       C  0.51494334  0.24780049  0.23709134    -0.11900
C1019       C  0.49089886  0.24696467  0.21374362     0.02200
C1020       C  0.47273746  0.26956022  0.21395007    -0.00200
C1021       C  0.47948733  0.29286916  0.23699038    -0.11900
C1022       C  0.50351323  0.29375956  0.26036886     0.02100
H1023       H  0.52871459  0.23030902  0.23642399     0.15000
H1024       H  0.46563417  0.31031439  0.23742627     0.15000
C1025       C  0.50871348  0.31830064  0.28383029     0.36700
C1026       C  0.48594469  0.22310333  0.18866635     0.36600
N1027       N  0.51278759  0.33800569  0.30259388    -0.43700
N1028       N  0.48197179  0.20409966  0.16833823    -0.43700
C1029       C  0.82596681  0.86307627  0.21076093    -0.00100
C1030       C  0.82491933  0.86218047  0.25343235    -0.11900
C1031       C  0.84190322  0.84455525  0.27565815     0.02200
C1032       C  0.86081216  0.82750082  0.25519326    -0.00200
C1033       C  0.86235285  0.82869990  0.21258149    -0.11900
C1034       C  0.84517719  0.84625285  0.19023090     0.02100
H1035       H  0.81016029  0.87477220  0.26959668     0.15000
H1036       H  0.87665077  0.81547109  0.19662635     0.15000
C1037       C  0.84674632  0.84520232  0.14639532     0.36700
C1038       C  0.83779318  0.84283851  0.31910564     0.36600
N1039       N  0.84814224  0.84400473  0.11129232    -0.43700
N1040       N  0.83423788  0.84127014  0.35383639    -0.43700
C1041       C  0.76153488  0.92267766  0.94070571    -0.00100
C1042       C  0.78737206  0.92085821  0.95955989    -0.11900
C1043       C  0.78998658  0.92076841  0.00205123     0.02200
C1044       C  0.76635330  0.92292272  0.02686546    -0.00200
C1045       C  0.74065112  0.92593547  0.00794980    -0.11900
C1046       C  0.73798073  0.92563081  0.96553098     0.02100
H1047       H  0.80566474  0.91868565  0.94107204     0.15000
H1048       H  0.72227894  0.92755570  0.02639621     0.15000
C1049       C  0.71060889  0.92737190  0.94878648     0.36700
C1050       C  0.81718774  0.91784381  0.01895415     0.36600
N1051       N  0.68864284  0.92861645  0.93547641    -0.43700
N1052       N  0.83907041  0.91540894  0.03219415    -0.43700
C1053       C  0.81237264  0.15369192  0.25823075    -0.00100
C1054       C  0.80250108  0.16904829  0.22512292    -0.11900
C1055       C  0.81964973  0.18676511  0.20333281     0.02200
C1056       C  0.84755941  0.18946521  0.21454216    -0.00200
C1057       C  0.85764416  0.17348998  0.24694151    -0.11900
C1058       C  0.84044536  0.15572931  0.26873353     0.02100
H1059       H  0.78104912  0.16764661  0.21654362     0.15000
H1060       H  0.87903607  0.17510268  0.25574787     0.15000
C1061       C  0.85236295  0.13984428  0.30141446     0.36700
C1062       C  0.80764319  0.20214611  0.17020206     0.36600
N1063       N  0.86202402  0.12711252  0.32751219    -0.43700
N1064       N  0.79786944  0.21439326  0.14369521    -0.43700
C1065       C  0.75851026  0.09326506  0.44726329    -0.00100
C1066       C  0.78238204  0.10042541  0.46880013    -0.11900
C1067       C  0.78277133  0.10103224  0.51139956     0.02200
C1068       C  0.75863367  0.09491534  0.53356856    -0.00200
C1069       C  0.73515992  0.08645052  0.51209771    -0.11900
C1070       C  0.73491987  0.08539682  0.46949255     0.02100
H1071       H  0.80080348  0.10606470  0.45228266     0.15000
H1072       H  0.71657529  0.08131971  0.52856761     0.15000
C1073       C  0.70980008  0.07709263  0.44967249     0.36700
C1074       C  0.80822963  0.10829409  0.53122214     0.36600
N1075       N  0.68968888  0.07034460  0.43380590    -0.43700
N1076       N  0.82865483  0.11395927  0.54714619    -0.43700
C1077       C  0.65330608  0.20787110  0.32613616    -0.00100
C1078       C  0.65072653  0.18600379  0.29842376    -0.11900
C1079       C  0.67014747  0.16471476  0.29703184     0.02200
C1080       C  0.69296148  0.16512422  0.32368424    -0.00200
C1081       C  0.69524871  0.18676857  0.35174781    -0.11900
C1082       C  0.67578801  0.20786496  0.35338632     0.02100
H1083       H  0.63356936  0.18562171  0.27738442     0.15000
H1084       H  0.71238136  0.18725401  0.37283631     0.15000
C1085       C  0.67935012  0.22879043  0.38408087     0.36700
C1086       C  0.66613171  0.14303857  0.26763946     0.36600
N1087       N  0.68234532  0.24538884  0.40889352    -0.43700
N1088       N  0.66273503  0.12568009  0.24410706    -0.43700
C1089       C  0.75858351  0.03370471  0.25900500    -0.00100
C1090       C  0.78401255  0.02536989  0.24310987    -0.11900
C1091       C  0.78651740  0.00134447  0.21986827     0.02200
C1092       C  0.76315049  0.98488772  0.21200007    -0.00200
C1093       C  0.73767071  0.99333882  0.22782102    -0.11900
C1094       C  0.73520607  0.01735847  0.25111873     0.02100
H1095       H  0.80211407  0.03779830  0.24864250     0.15000
H1096       H  0.71954305  0.98091510  0.22252649     0.15000
C1097       C  0.70860614  0.02410974  0.26770259     0.36700
C1098       C  0.81341191  0.99428625  0.20472675     0.36600
N1099       N  0.68735018  0.02953694  0.28118203    -0.43700
N1100       N  0.83503930  0.98873566  0.19274269    -0.43700
C1101       C  0.68680775  0.65452510  0.26810677    -0.00100
C1102       C  0.66887350  0.67191987  0.28941144    -0.11900
C1103       C  0.65076893  0.68944899  0.26888707     0.02200
C1104       C  0.65053762  0.69012925  0.22587863    -0.00200
C1105       C  0.66781327  0.67208318  0.20451188    -0.11900
C1106       C  0.68572478  0.65429475  0.22507849     0.02100
H1107       H  0.66909673  0.67204156  0.32240320     0.15000
H1108       H  0.66760751  0.67206319  0.17152354     0.15000
C1109       C  0.70215472  0.63566882  0.20108669     0.36700
C1110       C  0.63229539  0.70598003  0.29296646     0.36600
N1111       N  0.71511580  0.62063996  0.18172965    -0.43700
N1112       N  0.61737678  0.71907791  0.31229255    -0.43700
C1113       C  0.58741961  0.74452329  0.03671897    -0.00100
C1114       C  0.59145905  0.71968928  0.01566516    -0.11900
C1115       C  0.58936865  0.71838050  0.97316341     0.02200
C1116       C  0.58319654  0.74240391  0.95063798    -0.00200
C1117       C  0.57780618  0.76686921  0.97179807    -0.11900
C1118       C  0.57990142  0.76818763  0.01423394     0.02100
H1119       H  0.59701842  0.70127280  0.03234880     0.15000
H1120       H  0.57287703  0.78543048  0.95501451     0.15000
C1121       C  0.57540069  0.79450790  0.03334368     0.36700
C1122       C  0.59493284  0.69236405  0.95364618     0.36600
N1123       N  0.57188685  0.81566079  0.04855273    -0.43700
N1124       N  0.59938836  0.67156191  0.93790573    -0.43700
C1125       C  0.66336555  0.80988813  0.15966055    -0.00100
C1126       C  0.66509311  0.82882071  0.19186848    -0.11900
C1127       C  0.68535329  0.84940883  0.19222307     0.02200
C1128       C  0.70436002  0.85125388  0.15975161    -0.00200
C1129       C  0.70226048  0.83250632  0.12748348    -0.11900
C1130       C  0.68206783  0.81215768  0.12701893     0.02100
H1131       H  0.65085498  0.82729447  0.21709690     0.15000
H1132       H  0.71632405  0.83388419  0.10200227     0.15000
C1133       C  0.68048699  0.79458137  0.09170248     0.36700
C1134       C  0.68632525  0.86794698  0.22650461     0.36600
N1135       N  0.67914063  0.78057512  0.06333373    -0.43700
N1136       N  0.68708945  0.88284379  0.25392672    -0.43700
C1137       C  0.36055154  0.68709907  0.26234659    -0.00100
C1138       C  0.34008047  0.67321865  0.28427088    -0.11900
C1139       C  0.32090438  0.65643478  0.26457076     0.02200
C1140       C  0.32244000  0.65265528  0.22197080    -0.00200
C1141       C  0.34367024  0.66561981  0.20030092    -0.11900
C1142       C  0.36238942  0.68301152  0.21990961     0.02100
H1143       H  0.33836504  0.67631482  0.31686566     0.15000
H1144       H  0.34517131  0.66288265  0.16762587     0.15000
C1145       C  0.38313537  0.69645112  0.19566987     0.36700
C1146       C  0.29976124  0.64370589  0.28893241     0.36600
N1147       N  0.39967459  0.70731907  0.17618901    -0.43700
N1148       N  0.28271071  0.63362411  0.30837534    -0.43700
C1149       C  0.41616972  0.74037720  0.53717738    -0.00100
C1150       C  0.42750370  0.76297567  0.51662220    -0.11900
C1151       C  0.42893588  0.76362940  0.47408022     0.02200
C1152       C  0.41864166  0.74131762  0.45104010    -0.00200
C1153       C  0.40867380  0.71809271  0.47180395    -0.11900
C1154       C  0.40738310  0.71738102  0.51433134     0.02100
H1155       H  0.43471199  0.78057572  0.53382331     0.15000
H1156       H  0.40086335  0.70069160  0.45474504     0.15000
C1157       C  0.39553237  0.69335272  0.53332132     0.36700
C1158       C  0.44056872  0.78778423  0.45529134     0.36600
N1159       N  0.38603449  0.67415966  0.54866069    -0.43700
N1160       N  0.44998495  0.80723424  0.44058472    -0.43700
C1161       C  0.34417858  0.80492261  0.31930079    -0.00100
C1162       C  0.34968685  0.82998370  0.29956352    -0.11900
C1163       C  0.32974244  0.85074357  0.29685820     0.02200
C1164       C  0.30366085  0.84687365  0.31484436    -0.00200
C1165       C  0.29799900  0.82160758  0.33378940    -0.11900
C1166       C  0.31767700  0.80069288  0.33584415     0.02100
H1167       H  0.36971756  0.83346970  0.28617130     0.15000
H1168       H  0.27795217  0.81804146  0.34710357     0.15000
C1169       C  0.30972705  0.77515666  0.35496314     0.36700
C1170       C  0.33687138  0.87578480  0.27579361     0.36600
N1171       N  0.30317269  0.75470815  0.37013180    -0.43700
N1172       N  0.34264188  0.89576859  0.25869929    -0.43700
C1173       C  0.48078372  0.74686486  0.26674472    -0.00100
C1174       C  0.49044634  0.72237927  0.24922805    -0.11900
C1175       C  0.51465586  0.72183287  0.22614543     0.02200
C1176       C  0.52994431  0.74626183  0.22016856    -0.00200
C1177       C  0.52038296  0.77068452  0.23806875    -0.11900
C1178       C  0.49622220  0.77119919  0.26121059     0.02100
H1179       H  0.47887530  0.70351713  0.25324763     0.15000
H1180       H  0.53198511  0.78954990  0.23433959     0.15000
C1181       C  0.48852820  0.79680757  0.28022491     0.36700
C1182       C  0.52347245  0.69572232  0.20989214     0.36600
N1183       N  0.48263123  0.81737120  0.29558693    -0.43700
N1184       N  0.53054144  0.67475488  0.19700390    -0.43700
loop_ 
_geom_bond_atom_site_label_1 
_geom_bond_atom_site_label_2 
_geom_bond_distance 
_geom_bond_site_symmetry_2 
_ccdc_geom_bond_type 
In1           O3   2.245       .  S
In1           O4   2.241       .  S
In1          O12   2.259       .  S
In1           O6   2.250       .  S
In1           O8   2.265       .  S
In1           O9   2.248       .  S
In1          O10   2.241       .  S
In1          O13   2.256       .  S
C2            O8   1.261       .  A
C2           O10   1.257       .  A
C2         C1161   1.490       .  S
O3           C11   1.262       .  A
O4           C11   1.261       .  A
C5           O12   1.262       .  A
C5            O6   1.260       .  A
C5         C1173   1.489       .  S
C7            O9   1.259       .  A
C7           O13   1.259       .  A
C7         C1152   1.488       .  S
C11        C1137   1.481       .  S
In14         O16   2.238       .  S
In14         O17   2.254       .  S
In14         O25   2.251       .  S
In14         O19   2.249       .  S
In14         O21   2.268       .  S
In14         O22   2.251       .  S
In14         O23   2.229       .  S
In14         O26   2.245       .  S
C15          O21   1.262       .  A
C15          O23   1.258       .  A
C15        C1125   1.484       .  S
O16          C24   1.259       .  A
O17          C24   1.261       .  A
C18          O25   1.261       .  A
C18          O19   1.261       .  A
C18        C1176   1.491       .  S
C20          O22   1.261       .  A
C20          O26   1.261       .  A
C20        C1113   1.490       .  S
C24        C1104   1.485       .  S
In27         O29   2.249       .  S
In27         O30   2.246       .  S
In27         O38   2.250       .  S
In27         O32   2.251       .  S
In27         O34   2.258       .  S
In27         O35   2.244       .  S
In27         O36   2.232       .  S
In27         O39   2.233       .  S
C28          O34   1.262       .  A
C28          O36   1.260       .  A
C28        C1080   1.487       .  S
O29          C37   1.260       .  A
O30          C37   1.260       .  A
C31          O38   1.260       .  A
C31          O32   1.260       .  A
C31        C1089   1.487       .  S
C33          O35   1.261       .  A
C33          O39   1.261       .  A
C33        C1053   1.483       .  S
C37        C1065   1.487       .  S
In40         O42   2.248       .  S
In40         O43   2.255       .  S
In40         O51   2.260       .  S
In40         O45   2.251       .  S
In40         O47   2.256       .  S
In40         O48   2.261       .  S
In40         O49   2.235       .  S
In40         O52   2.233       .  S
C41          O47   1.260       .  A
C41          O49   1.260       .  A
C41        C1128   1.486       .  S
O42          C50   1.261       .  A
O43          C50   1.260       .  A
C44          O51   1.260       .  A
C44          O45   1.259       .  A
C44        C1092   1.492       .  S
C46          O48   1.260       .  A
C46          O52   1.260       .  A
C46        C1029   1.483       .  S
C50        C1044   1.489       .  S
In53         O55   2.232       .  S
In53         O56   2.250       .  S
In53         O64   2.244       .  S
In53         O58   2.249       .  S
In53         O60   2.254       .  S
In53         O61   2.239       .  S
In53         O62   2.242       .  S
In53         O65   2.250       .  S
C54          O60   1.262       .  A
C54          O62   1.260       .  A
C54        C1077   1.488       .  S
O55          C63   1.260       .  A
O56          C63   1.260       .  A
C57          O64   1.259       .  A
C57          O58   1.260       .  A
C57        C1017   1.487       .  S
C59          O61   1.259       .  A
C59          O65   1.262       .  A
C59        C1005   1.486       .  S
C63         C993   1.483       .  S
In66         O68   2.245       .  S
In66         O69   2.238       .  S
In66         O77   2.246       .  S
In66         O71   2.240       .  S
In66         O73   2.261       .  S
In66         O74   2.239       .  S
In66         O75   2.229       .  S
In66         O78   2.246       .  S
C67          O73   1.261       .  A
C67          O75   1.259       .  A
C67         C984   1.485       .  S
O68          C76   1.262       .  A
O69          C76   1.261       .  A
C70          O77   1.260       .  A
C70          O71   1.260       .  A
C70        C1020   1.480       .  S
C72          O74   1.260       .  A
C72          O78   1.260       .  A
C72         C972   1.485       .  S
C76         C957   1.479       .  S
In79         O81   2.250       .  S
In79         O82   2.238       .  S
In79         O90   2.237       .  S
In79         O84   2.255       .  S
In79         O86   2.264       .  S
In79         O87   2.246       .  S
In79         O88   2.238       .  S
In79         O91   2.234       .  S
C80          O86   1.262       .  A
C80          O88   1.259       .  A
C80        C1164   1.489       .  S
O81          C89   1.261       .  A
O82          C89   1.259       .  A
C83          O90   1.260       .  A
C83          O84   1.262       .  A
C83         C948   1.487       .  S
C85          O87   1.261       .  A
C85          O91   1.260       .  A
C85         C924   1.483       .  S
C89         C936   1.487       .  S
In92         O94   2.230       .  S
In92         O95   2.253       .  S
In92        O103   2.246       .  S
In92         O97   2.247       .  S
In92         O99   2.257       .  S
In92        O100   2.234       .  S
In92        O101   2.234       .  S
In92        O104   2.245       .  S
C93          O99   1.262       .  A
C93         O101   1.259       .  A
C93         C981   1.487       .  S
O94         C102   1.260       .  A
O95         C102   1.260       .  A
C96         O103   1.260       .  A
C96          O97   1.261       .  A
C96         C945   1.489       .  S
C98         O100   1.260       .  A
C98         O104   1.261       .  A
C98         C897   1.481       .  S
C102        C909   1.485       .  S
In105       O107   2.240       .  S
In105       O108   2.227       .  S
In105       O116   2.240       .  S
In105       O110   2.246       .  S
In105       O112   2.269       .  S
In105       O113   2.245       .  S
In105       O114   2.227       .  S
In105       O117   2.241       .  S
C106        O112   1.262       .  A
C106        O114   1.256       .  A
C106        C873   1.488       .  S
O107        C115   1.263       .  A
O108        C115   1.261       .  A
C109        O116   1.260       .  A
C109        O110   1.261       .  A
C109        C885   1.477       .  S
C111        O113   1.260       .  A
C111        O117   1.260       .  A
C111        C861   1.478       .  S
C115       C1149   1.482       .  S
In118       O120   2.236       .  S
In118       O121   2.233       .  S
In118       O129   2.250       .  S
In118       O123   2.248       .  S
In118       O125   2.267       .  S
In118       O126   2.246       .  S
In118       O127   2.227       .  S
In118       O130   2.240       .  S
C119        O125   1.262       .  A
C119        O127   1.256       .  A
C119        C849   1.486       .  S
O120        C128   1.263       .  A
O121        C128   1.262       .  A
C122        O129   1.260       .  A
C122        O123   1.260       .  A
C122        C888   1.482       .  S
C124        O126   1.259       .  A
C124        O130   1.260       .  A
C124        C837   1.476       .  S
C128       C1116   1.485       .  S
In131       O133   2.245       .  S
In131       O134   2.234       .  S
In131       O142   2.257       .  S
In131       O136   2.237       .  S
In131       O138   2.252       .  S
In131       O139   2.230       .  S
In131       O140   2.236       .  S
In131       O143   2.247       .  S
C132        O138   1.261       .  A
C132        O140   1.258       .  A
C132        C813   1.482       .  S
O133        C141   1.260       .  A
O134        C141   1.260       .  A
C135        O142   1.260       .  A
C135        O136   1.259       .  A
C135        C825   1.476       .  S
C137        O139   1.261       .  A
C137        O143   1.263       .  A
C137       C1068   1.487       .  S
C141        C801   1.480       .  S
In144       O146   2.249       .  S
In144       O147   2.246       .  S
In144       O155   2.247       .  S
In144       O149   2.237       .  S
In144       O151   2.252       .  S
In144       O152   2.247       .  S
In144       O153   2.230       .  S
In144       O156   2.230       .  S
C145        O151   1.261       .  A
C145        O153   1.259       .  A
C145        C852   1.485       .  S
O146        C154   1.259       .  A
O147        C154   1.261       .  A
C148        O155   1.260       .  A
C148        O149   1.259       .  A
C148        C828   1.474       .  S
C150        O152   1.265       .  A
C150        O156   1.261       .  A
C150       C1041   1.488       .  S
C154        C789   1.487       .  S
In157       O159   2.242       .  S
In157       O160   2.250       .  S
In157       O168   2.251       .  S
In157       O162   2.259       .  S
In157       O164   2.259       .  S
In157       O165   2.243       .  S
In157       O166   2.231       .  S
In157       O169   2.251       .  S
C158        O164   1.263       .  A
C158        O166   1.257       .  A
C158        C816   1.481       .  S
O159        C167   1.259       .  A
O160        C167   1.261       .  A
C161        O168   1.262       .  A
C161        O162   1.261       .  A
C161        C777   1.493       .  S
C163        O165   1.261       .  A
C163        O169   1.263       .  A
C163        C765   1.484       .  S
C167       C1008   1.485       .  S
In170       O172   2.249       .  S
In170       O173   2.235       .  S
In170       O181   2.246       .  S
In170       O175   2.262       .  S
In170       O177   2.254       .  S
In170       O178   2.246       .  S
In170       O179   2.243       .  S
In170       O182   2.229       .  S
C171        O177   1.263       .  A
C171        O179   1.259       .  A
C171        C756   1.487       .  S
O172        C180   1.261       .  A
O173        C180   1.258       .  A
C174        O181   1.259       .  A
C174        O175   1.262       .  A
C174        C780   1.490       .  S
C176        O178   1.261       .  A
C176        O182   1.261       .  A
C176        C741   1.482       .  S
C180        C969   1.485       .  S
In183       O185   2.241       .  S
In183       O186   2.236       .  S
In183       O194   2.250       .  S
In183       O188   2.253       .  S
In183       O190   2.257       .  S
In183       O191   2.249       .  S
In183       O192   2.242       .  S
In183       O195   2.244       .  S
C184        O190   1.262       .  A
C184        O192   1.260       .  A
C184        C876   1.485       .  S
O185        C193   1.263       .  A
O186        C193   1.261       .  A
C187        O194   1.260       .  A
C187        O188   1.261       .  A
C187        C729   1.486       .  S
C189        O191   1.260       .  A
C189        O195   1.258       .  A
C189        C933   1.487       .  S
C193        C717   1.483       .  S
In196       O198   2.226       .  S
In196       O199   2.242       .  S
In196       O207   2.263       .  S
In196       O201   2.239       .  S
In196       O203   2.247       .  S
In196       O204   2.250       .  S
In196       O205   2.248       .  S
In196       O208   2.236       .  S
C197        O203   1.261       .  A
C197        O205   1.260       .  A
C197        C753   1.489       .  S
O198        C206   1.259       .  A
O199        C206   1.262       .  A
C200        O207   1.262       .  A
C200        O201   1.260       .  A
C200        C732   1.490       .  S
C202        O204   1.260       .  A
C202        O208   1.260       .  A
C202        C912   1.484       .  S
C206        C708   1.480       .  S
In209       O211   2.245       .  S
In209       O212   2.244       .  S
In209       O220   2.244       .  S
In209       O214   2.262       .  S
In209       O216   2.253       .  S
In209       O217   2.254       .  S
In209       O218   2.248       .  S
In209       O221   2.259       .  S
C210        O216   1.260       .  A
C210        O218   1.260       .  A
C210        C681   1.490       .  S
O211        C219   1.260       .  A
O212        C219   1.262       .  A
C213        O220   1.259       .  A
C213        O214   1.262       .  A
C213        C693   1.491       .  S
C215        O217   1.260       .  A
C215        O221   1.261       .  A
C215        C669   1.491       .  S
C219       C1101   1.486       .  S
In222       O224   2.249       .  S
In222       O225   2.236       .  S
In222       O233   2.245       .  S
In222       O227   2.258       .  S
In222       O229   2.255       .  S
In222       O230   2.252       .  S
In222       O231   2.245       .  S
In222       O234   2.258       .  S
C223        O229   1.260       .  A
C223        O231   1.260       .  A
C223        C657   1.489       .  S
O224        C232   1.261       .  A
O225        C232   1.260       .  A
C226        O233   1.261       .  A
C226        O227   1.261       .  A
C226        C696   1.489       .  S
C228        O230   1.258       .  A
C228        O234   1.261       .  A
C228        C645   1.490       .  S
C232        C996   1.485       .  S
In235       O237   2.255       .  S
In235       O238   2.232       .  S
In235       O246   2.238       .  S
In235       O240   2.243       .  S
In235       O242   2.257       .  S
In235       O243   2.237       .  S
In235       O244   2.224       .  S
In235       O247   2.246       .  S
C236        O242   1.263       .  A
C236        O244   1.259       .  A
C236        C684   1.483       .  S
O237        C245   1.263       .  A
O238        C245   1.260       .  A
C239        O246   1.259       .  A
C239        O240   1.260       .  A
C239        C633   1.481       .  S
C241        O243   1.260       .  A
C241        O247   1.260       .  A
C241       C1032   1.478       .  S
C245        C621   1.488       .  S
In248       O250   2.237       .  S
In248       O251   2.258       .  S
In248       O259   2.238       .  S
In248       O253   2.241       .  S
In248       O255   2.243       .  S
In248       O256   2.229       .  S
In248       O257   2.234       .  S
In248       O260   2.241       .  S
C249        O255   1.261       .  A
C249        O257   1.261       .  A
C249        C609   1.484       .  S
O250        C258   1.258       .  A
O251        C258   1.260       .  A
C252        O259   1.260       .  A
C252        O253   1.259       .  A
C252        C636   1.477       .  S
C254        O256   1.262       .  A
C254        O260   1.261       .  A
C254        C921   1.482       .  S
C258        C597   1.485       .  S
In261       O263   2.240       .  S
In261       O264   2.242       .  S
In261       O272   2.241       .  S
In261       O266   2.243       .  S
In261       O268   2.245       .  S
In261       O269   2.238       .  S
In261       O270   2.233       .  S
In261       O273   2.235       .  S
C262        O268   1.261       .  A
C262        O270   1.258       .  A
C262        C573   1.482       .  S
O263        C271   1.260       .  A
O264        C271   1.260       .  A
C265        O272   1.260       .  A
C265        O266   1.260       .  A
C265        C585   1.485       .  S
C267        O269   1.261       .  A
C267        O273   1.261       .  A
C267        C900   1.478       .  S
C271        C561   1.484       .  S
In274       O276   2.253       .  S
In274       O277   2.245       .  S
In274       O285   2.236       .  S
In274       O279   2.243       .  S
In274       O281   2.261       .  S
In274       O282   2.237       .  S
In274       O283   2.239       .  S
In274       O286   2.244       .  S
C275        O281   1.260       .  A
C275        O283   1.260       .  A
C275        C660   1.487       .  S
O276        C284   1.261       .  A
O277        C284   1.260       .  A
C278        O285   1.259       .  A
C278        O279   1.261       .  A
C278        C588   1.481       .  S
C280        O282   1.260       .  A
C280        O286   1.261       .  A
C280       C1056   1.485       .  S
C284        C552   1.489       .  S
In287       O289   2.238       .  S
In287       O290   2.249       .  S
In287       O298   2.236       .  S
In287       O292   2.240       .  S
In287       O294   2.238       .  S
In287       O295   2.255       .  S
In287       O296   2.230       .  S
In287       O299   2.246       .  S
C288        O294   1.261       .  A
C288        O296   1.261       .  A
C288        C576   1.482       .  S
O289        C297   1.259       .  A
O290        C297   1.262       .  A
C291        O298   1.262       .  A
C291        O292   1.259       .  A
C291        C537   1.483       .  S
C293        O295   1.262       .  A
C293        O299   1.259       .  A
C293        C525   1.491       .  S
C297        C960   1.483       .  S
In300       O302   2.234       .  S
In300       O303   2.243       .  S
In300       O311   2.233       .  S
In300       O305   2.249       .  S
In300       O307   2.252       .  S
In300       O308   2.239       .  S
In300       O309   2.235       .  S
In300       O312   2.244       .  S
C301        O307   1.262       .  A
C301        O309   1.259       .  A
C301        C612   1.483       .  S
O302        C310   1.261       .  A
O303        C310   1.262       .  A
C304        O311   1.259       .  A
C304        O305   1.261       .  A
C304        C540   1.478       .  S
C306        O308   1.260       .  A
C306        O312   1.261       .  A
C306        C513   1.485       .  S
C310       C1140   1.483       .  S
In313       O315   2.259       .  S
In313       O316   2.250       .  S
In313       O324   2.242       .  S
In313       O318   2.251       .  S
In313       O320   2.268       .  S
In313       O321   2.241       .  S
In313       O322   2.234       .  S
In313       O325   2.242       .  S
C314        O320   1.262       .  A
C314        O322   1.259       .  A
C314        C492   1.486       .  S
O315        C323   1.261       .  A
O316        C323   1.260       .  A
C317        O324   1.261       .  A
C317        O318   1.261       .  A
C317        C501   1.489       .  S
C319        O321   1.261       .  A
C319        O325   1.260       .  A
C319        C840   1.485       .  S
C323        C672   1.493       .  S
In326       O328   2.255       .  S
In326       O329   2.248       .  S
In326       O337   2.240       .  S
In326       O331   2.256       .  S
In326       O333   2.243       .  S
In326       O334   2.249       .  S
In326       O335   2.253       .  S
In326       O338   2.254       .  S
C327        O333   1.259       .  A
C327        O335   1.261       .  A
C327        C477   1.486       .  S
O328        C336   1.259       .  A
O329        C336   1.259       .  A
C330        O337   1.260       .  A
C330        O331   1.260       .  A
C330        C504   1.485       .  S
C332        O334   1.260       .  A
C332        O338   1.262       .  A
C332        C768   1.490       .  S
C336        C648   1.489       .  S
In339       O341   2.231       .  S
In339       O342   2.261       .  S
In339       O350   2.242       .  S
In339       O344   2.246       .  S
In339       O346   2.258       .  S
In339       O347   2.244       .  S
In339       O348   2.238       .  S
In339       O351   2.253       .  S
C340        O346   1.261       .  A
C340        O348   1.259       .  A
C340        C489   1.489       .  S
O341        C349   1.259       .  A
O342        C349   1.262       .  A
C343        O350   1.260       .  A
C343        O344   1.261       .  A
C343        C465   1.488       .  S
C345        O347   1.261       .  A
C345        O351   1.260       .  A
C345        C624   1.489       .  S
C349        C792   1.487       .  S
In352       O354   2.247       .  S
In352       O355   2.228       .  S
In352       O363   2.249       .  S
In352       O357   2.253       .  S
In352       O359   2.251       .  S
In352       O360   2.238       .  S
In352       O361   2.236       .  S
In352       O364   2.253       .  S
C353        O359   1.261       .  A
C353        O361   1.258       .  A
C353        C456   1.485       .  S
O354        C362   1.263       .  A
O355        C362   1.260       .  A
C356        O363   1.260       .  A
C356        O357   1.260       .  A
C356        C468   1.482       .  S
C358        O360   1.257       .  A
C358        O364   1.260       .  A
C358        C600   1.485       .  S
C362        C720   1.479       .  S
In365       O367   2.255       .  S
In365       O368   2.244       .  S
In365       O376   2.243       .  S
In365       O370   2.240       .  S
In365       O372   2.257       .  S
In365       O373   2.252       .  S
In365       O374   2.229       .  S
In365       O377   2.233       .  S
C366        O372   1.262       .  A
C366        O374   1.258       .  A
C366        C429   1.483       .  S
O367        C375   1.262       .  A
O368        C375   1.260       .  A
C369        O376   1.261       .  A
C369        O370   1.261       .  A
C369        C441   1.486       .  S
C371        O373   1.260       .  A
C371        O377   1.261       .  A
C371        C744   1.484       .  S
C375        C528   1.491       .  S
In378       O380   2.242       .  S
In378       O381   2.256       .  S
In378       O389   2.240       .  S
In378       O383   2.249       .  S
In378       O385   2.248       .  S
In378       O386   2.244       .  S
In378       O387   2.243       .  S
In378       O390   2.228       .  S
C379        O385   1.260       .  A
C379        O387   1.260       .  A
C379        C453   1.480       .  S
O380        C388   1.258       .  A
O381        C388   1.261       .  A
C382        O389   1.258       .  A
C382        O383   1.260       .  A
C382        C444   1.480       .  S
C384        O386   1.264       .  A
C384        O390   1.261       .  A
C384        C864   1.485       .  S
C388        C516   1.488       .  S
In391       O393   2.232       .  S
In391       O394   2.232       .  S
In391       O402   2.240       .  S
In391       O396   2.259       .  S
In391       O398   2.246       .  S
In391       O399   2.241       .  S
In391       O400   2.236       .  S
In391       O403   2.237       .  S
C392        O398   1.263       .  A
C392        O400   1.258       .  A
C392        C432   1.481       .  S
O393        C401   1.261       .  A
O394        C401   1.260       .  A
C395        O402   1.260       .  A
C395        O396   1.261       .  A
C395        C420   1.487       .  S
C397        O399   1.260       .  A
C397        O403   1.260       .  A
C397        C564   1.485       .  S
C401        C705   1.473       .  S
In404       O406   2.251       .  S
In404       O407   2.246       .  S
In404       O415   2.249       .  S
In404       O409   2.252       .  S
In404       O411   2.250       .  S
In404       O412   2.254       .  S
In404       O413   2.250       .  S
In404       O416   2.250       .  S
C405        O411   1.259       .  A
C405        O413   1.260       .  A
C405        C480   1.486       .  S
O406        C414   1.262       .  A
O407        C414   1.261       .  A
C408        O415   1.262       .  A
C408        O409   1.260       .  A
C408        C417   1.489       .  S
C410        O412   1.261       .  A
C410        O416   1.259       .  A
C410        C549   1.488       .  S
C414        C804   1.487       .  S
C417        C418   1.404       .  A
C417        C422   1.417       .  A
C418        C419   1.400   1_655  A
C418        H423   1.084       .  S
C419        C420   1.414       .  A
C419        C426   1.444       .  S
C420        C421   1.405       .  A
C421        C422   1.405   1_455  A
C421        H424   1.084       .  S
C422        C425   1.444       .  S
C425        N427   1.157       .  T
C426        N428   1.157       .  T
C429        C430   1.406       .  A
C429        C434   1.413       .  A
C430        C431   1.398       .  A
C430        H435   1.085       .  S
C431        C432   1.414       .  A
C431        C438   1.445       .  S
C432        C433   1.404       .  A
C433        C434   1.400       .  A
C433        H436   1.084       .  S
C434        C437   1.443       .  S
C437        N439   1.157       .  T
C438        N440   1.158       .  T
C441        C442   1.406       .  A
C441        C446   1.416       .  A
C442        C443   1.399       .  A
C442        H447   1.084       .  S
C443        C444   1.413       .  A
C443        C450   1.445       .  S
C444        C445   1.403       .  A
C445        C446   1.401       .  A
C445        H448   1.084       .  S
C446        C449   1.444       .  S
C449        N451   1.157       .  T
C450        N452   1.157       .  T
C453        C454   1.404       .  A
C453        C458   1.412       .  A
C454        C455   1.401       .  A
C454        H459   1.085       .  S
C455        C456   1.415       .  A
C455        C462   1.444       .  S
C456        C457   1.406       .  A
C457        C458   1.399       .  A
C457        H460   1.084       .  S
C458        C461   1.445       .  S
C461        N463   1.157       .  T
C462        N464   1.157       .  T
C465        C466   1.407       .  A
C465        C470   1.416       .  A
C466        C467   1.402   1_655  A
C466        H471   1.084       .  S
C467        C468   1.412       .  A
C467        C474   1.444       .  S
C468        C469   1.403       .  A
C469        C470   1.401   1_455  A
C469        H472   1.084       .  S
C470        C473   1.444       .  S
C473        N475   1.157       .  T
C474        N476   1.157       .  T
C477        C478   1.405       .  A
C477        C482   1.416       .  A
C478        C479   1.401       .  A
C478        H483   1.085       .  S
C479        C480   1.414       .  A
C479        C486   1.444       .  S
C480        C481   1.405       .  A
C481        C482   1.401       .  A
C481        H484   1.085       .  S
C482        C485   1.445       .  S
C485        N487   1.157       .  T
C486        N488   1.157       .  T
C489        C490   1.408       .  A
C489        C494   1.415       .  A
C490        C491   1.405       .  A
C490        H495   1.085       .  S
C491        C492   1.414       .  A
C491        C498   1.444       .  S
C492        C493   1.403       .  A
C493        C494   1.398       .  A
C493        H496   1.085       .  S
C494        C497   1.444       .  S
C497        N499   1.157       .  T
C498        N500   1.157       .  T
C501        C502   1.406       .  A
C501        C506   1.417       .  A
C502        C503   1.400       .  A
C502        H507   1.085       .  S
C503        C504   1.412       .  A
C503        C510   1.445       .  S
C504        C505   1.405       .  A
C505        C506   1.404       .  A
C505        H508   1.085       .  S
C506        C509   1.444       .  S
C509        N511   1.157       .  T
C510        N512   1.157       .  T
C513        C514   1.404       .  A
C513        C518   1.414       .  A
C514        C515   1.399   1_554  A
C514        H519   1.085       .  S
C515        C516   1.416       .  A
C515        C522   1.444       .  S
C516        C517   1.406       .  A
C517        C518   1.402   1_556  A
C517        H520   1.084       .  S
C518        C521   1.444       .  S
C521        N523   1.157       .  T
C522        N524   1.157       .  T
C525        C526   1.405       .  A
C525        C530   1.417       .  A
C526        C527   1.402       .  A
C526        H531   1.084       .  S
C527        C528   1.416       .  A
C527        C534   1.444       .  S
C528        C529   1.406       .  A
C529        C530   1.403       .  A
C529        H532   1.084       .  S
C530        C533   1.444       .  S
C533        N535   1.157       .  T
C534        N536   1.157       .  T
C537        C538   1.404       .  A
C537        C542   1.417       .  A
C538        C539   1.397       .  A
C538        H543   1.084       .  S
C539        C540   1.412       .  A
C539        C546   1.444       .  S
C540        C541   1.403       .  A
C541        C542   1.401       .  A
C541        H544   1.084       .  S
C542        C545   1.445       .  S
C545        N547   1.158       .  T
C546        N548   1.157       .  T
C549        C550   1.405       .  A
C549        C554   1.415       .  A
C550        C551   1.401   1_556  A
C550        H555   1.085       .  S
C551        C552   1.415       .  A
C551        C558   1.444       .  S
C552        C553   1.406       .  A
C553        C554   1.402   1_554  A
C553        H556   1.084       .  S
C554        C557   1.444       .  S
C557        N559   1.157       .  T
C558        N560   1.157       .  T
C561        C562   1.405       .  A
C561        C566   1.414       .  A
C562        C563   1.399       .  A
C562        H567   1.085       .  S
C563        C564   1.414       .  A
C563        C570   1.444       .  S
C564        C565   1.406       .  A
C565        C566   1.400       .  A
C565        H568   1.084       .  S
C566        C569   1.444       .  S
C569        N571   1.157       .  T
C570        N572   1.157       .  T
C573        C574   1.405       .  A
C573        C578   1.415       .  A
C574        C575   1.400       .  A
C574        H579   1.085       .  S
C575        C576   1.414       .  A
C575        C582   1.444       .  S
C576        C577   1.404       .  A
C577        C578   1.397       .  A
C577        H580   1.085       .  S
C578        C581   1.445       .  S
C581        N583   1.157       .  T
C582        N584   1.157       .  T
C585        C586   1.405       .  A
C585        C590   1.415       .  A
C586        C587   1.399   1_455  A
C586        H591   1.084       .  S
C587        C588   1.414       .  A
C587        C594   1.445       .  S
C588        C589   1.404       .  A
C589        C590   1.400   1_655  A
C589        H592   1.084       .  S
C590        C593   1.444       .  S
C593        N595   1.157       .  T
C594        N596   1.157       .  T
C597        C598   1.405       .  A
C597        C602   1.414       .  A
C598        C599   1.402   1_554  A
C598        H603   1.084       .  S
C599        C600   1.416       .  A
C599        C606   1.445       .  S
C600        C601   1.404       .  A
C601        C602   1.399   1_556  A
C601        H604   1.085       .  S
C602        C605   1.444       .  S
C605        N607   1.157       .  T
C606        N608   1.158       .  T
C609        C610   1.405       .  A
C609        C614   1.415       .  A
C610        C611   1.398       .  A
C610        H615   1.085       .  S
C611        C612   1.414       .  A
C611        C618   1.445       .  S
C612        C613   1.405       .  A
C613        C614   1.401       .  A
C613        H616   1.085       .  S
C614        C617   1.444       .  S
C617        N619   1.157       .  T
C618        N620   1.157       .  T
C621        C622   1.406       .  A
C621        C626   1.415       .  A
C622        C623   1.403       .  A
C622        H627   1.084       .  S
C623        C624   1.416       .  A
C623        C630   1.444       .  S
C624        C625   1.405       .  A
C625        C626   1.400       .  A
C625        H628   1.085       .  S
C626        C629   1.444       .  S
C629        N631   1.157       .  T
C630        N632   1.157       .  T
C633        C634   1.405       .  A
C633        C638   1.415       .  A
C634        C635   1.399   1_655  A
C634        H639   1.085       .  S
C635        C636   1.412       .  A
C635        C642   1.444       .  S
C636        C637   1.403       .  A
C637        C638   1.398   1_455  A
C637        H640   1.085       .  S
C638        C641   1.444       .  S
C641        N643   1.157       .  T
C642        N644   1.157       .  T
C645        C646   1.406       .  A
C645        C650   1.416       .  A
C646        C647   1.402   1_554  A
C646        H651   1.084       .  S
C647        C648   1.415       .  A
C647        C654   1.444       .  S
C648        C649   1.405       .  A
C649        C650   1.401   1_556  A
C649        H652   1.085       .  S
C650        C653   1.444       .  S
C653        N655   1.157       .  T
C654        N656   1.157       .  T
C657        C658   1.407       .  A
C657        C662   1.415       .  A
C658        C659   1.404       .  A
C658        H663   1.084       .  S
C659        C660   1.416       .  A
C659        C666   1.445       .  S
C660        C661   1.404       .  A
C661        C662   1.399       .  A
C661        H664   1.085       .  S
C662        C665   1.444       .  S
C665        N667   1.157       .  T
C666        N668   1.158       .  T
C669        C670   1.406       .  A
C669        C674   1.416       .  A
C670        C671   1.404       .  A
C670        H675   1.085       .  S
C671        C672   1.416       .  A
C671        C678   1.444       .  S
C672        C673   1.407       .  A
C673        C674   1.403       .  A
C673        H676   1.084       .  S
C674        C677   1.444       .  S
C677        N679   1.157       .  T
C678        N680   1.157       .  T
C681        C682   1.406       .  A
C681        C686   1.417       .  A
C682        C683   1.400       .  A
C682        H687   1.084       .  S
C683        C684   1.413       .  A
C683        C690   1.446       .  S
C684        C685   1.403       .  A
C685        C686   1.403       .  A
C685        H688   1.085       .  S
C686        C689   1.443       .  S
C689        N691   1.157       .  T
C690        N692   1.158       .  T
C693        C694   1.407       .  A
C693        C698   1.417       .  A
C694        C695   1.405       .  A
C694        H699   1.085       .  S
C695        C696   1.415       .  A
C695        C702   1.444       .  S
C696        C697   1.404       .  A
C697        C698   1.400       .  A
C697        H700   1.085       .  S
C698        C701   1.444       .  S
C701        N703   1.157       .  T
C702        N704   1.157       .  T
C705        C706   1.402       .  A
C705        C710   1.411       .  A
C706        C707   1.397       .  A
C706        H711   1.086       .  S
C707        C708   1.415       .  A
C707        C714   1.445       .  S
C708        C709   1.405       .  A
C709        C710   1.398       .  A
C709        H712   1.085       .  S
C710        C713   1.445       .  S
C713        N715   1.157       .  T
C714        N716   1.157       .  T
C717        C718   1.404       .  A
C717        C722   1.416       .  A
C718        C719   1.399       .  A
C718        H723   1.085       .  S
C719        C720   1.414       .  A
C719        C726   1.445       .  S
C720        C721   1.403       .  A
C721        C722   1.401       .  A
C721        H724   1.085       .  S
C722        C725   1.444       .  S
C725        N727   1.157       .  T
C726        N728   1.157       .  T
C729        C730   1.406       .  A
C729        C734   1.413   1_565  A
C730        C731   1.403   1_565  A
C730        H735   1.085       .  S
C731        C732   1.416       .  A
C731        C738   1.444       .  S
C732        C733   1.407       .  A
C733        C734   1.401       .  A
C733        H736   1.084       .  S
C734        C737   1.444   1_545  S
C737        N739   1.157       .  T
C738        N740   1.157       .  T
C741        C742   1.406       .  A
C741        C746   1.412       .  A
C742        C743   1.403       .  A
C742        H747   1.084       .  S
C743        C744   1.416       .  A
C743        C750   1.445       .  S
C744        C745   1.404       .  A
C745        C746   1.396       .  A
C745        H748   1.084       .  S
C746        C749   1.444       .  S
C749        N751   1.157       .  T
C750        N752   1.158       .  T
C753        C754   1.406       .  A
C753        C758   1.415       .  A
C754        C755   1.402       .  A
C754        H759   1.084       .  S
C755        C756   1.416       .  A
C755        C762   1.445       .  S
C756        C757   1.404       .  A
C757        C758   1.401       .  A
C757        H760   1.084       .  S
C758        C761   1.444       .  S
C761        N763   1.157       .  T
C762        N764   1.158       .  T
C765        C766   1.403       .  A
C765        C770   1.414       .  A
C766        C767   1.402       .  A
C766        H771   1.084       .  S
C767        C768   1.417       .  A
C767        C774   1.444       .  S
C768        C769   1.406       .  A
C769        C770   1.402       .  A
C769        H772   1.084       .  S
C770        C773   1.445       .  S
C773        N775   1.157       .  T
C774        N776   1.157       .  T
C777        C778   1.406       .  A
C777        C782   1.417       .  A
C778        C779   1.402       .  A
C778        H783   1.084       .  S
C779        C780   1.415       .  A
C779        C786   1.444       .  S
C780        C781   1.406       .  A
C781        C782   1.405       .  A
C781        H784   1.084       .  S
C782        C785   1.444       .  S
C785        N787   1.157       .  T
C786        N788   1.157       .  T
C789        C790   1.403       .  A
C789        C794   1.417       .  A
C790        C791   1.398       .  A
C790        H795   1.085       .  S
C791        C792   1.415       .  A
C791        C798   1.444       .  S
C792        C793   1.406       .  A
C793        C794   1.404       .  A
C793        H796   1.085       .  S
C794        C797   1.445       .  S
C797        N799   1.158       .  T
C798        N800   1.157       .  T
C801        C802   1.402       .  A
C801        C806   1.413       .  A
C802        C803   1.399       .  A
C802        H807   1.085       .  S
C803        C804   1.416       .  A
C803        C810   1.443       .  S
C804        C805   1.407       .  A
C805        C806   1.402       .  A
C805        H808   1.084       .  S
C806        C809   1.445       .  S
C809        N811   1.158       .  T
C810        N812   1.157       .  T
C813        C814   1.404       .  A
C813        C818   1.413       .  A
C814        C815   1.398       .  A
C814        H819   1.085       .  S
C815        C816   1.415       .  A
C815        C822   1.445       .  S
C816        C817   1.404       .  A
C817        C818   1.402       .  A
C817        H820   1.085       .  S
C818        C821   1.444       .  S
C821        N823   1.157       .  T
C822        N824   1.157       .  T
C825        C826   1.405       .  A
C825        C830   1.411       .  A
C826        C827   1.403       .  A
C826        H831   1.084       .  S
C827        C828   1.412   1_545  A
C827        C834   1.445       .  S
C828        C829   1.402       .  A
C829        C830   1.397   1_565  A
C829        H832   1.085       .  S
C830        C833   1.444       .  S
C833        N835   1.157       .  T
C834        N836   1.158       .  T
C837        C838   1.403       .  A
C837        C842   1.409       .  A
C838        C839   1.401       .  A
C838        H843   1.085       .  S
C839        C840   1.417       .  A
C839        C846   1.444       .  S
C840        C841   1.406       .  A
C841        C842   1.399       .  A
C841        H844   1.085       .  S
C842        C845   1.444       .  S
C845        N847   1.157       .  T
C846        N848   1.158       .  T
C849        C850   1.406       .  A
C849        C854   1.416       .  A
C850        C851   1.403       .  A
C850        H855   1.084       .  S
C851        C852   1.415       .  A
C851        C858   1.444       .  S
C852        C853   1.404       .  A
C853        C854   1.397       .  A
C853        H856   1.084       .  S
C854        C857   1.445       .  S
C857        N859   1.158       .  T
C858        N860   1.157       .  T
C861        C862   1.403       .  A
C861        C866   1.411       .  A
C862        C863   1.400       .  A
C862        H867   1.085       .  S
C863        C864   1.417       .  A
C863        C870   1.445       .  S
C864        C865   1.406       .  A
C865        C866   1.400       .  A
C865        H868   1.085       .  S
C866        C869   1.444       .  S
C869        N871   1.157       .  T
C870        N872   1.158       .  T
C873        C874   1.406       .  A
C873        C878   1.417       .  A
C874        C875   1.403       .  A
C874        H879   1.084       .  S
C875        C876   1.413       .  A
C875        C882   1.443       .  S
C876        C877   1.404       .  A
C877        C878   1.400       .  A
C877        H880   1.085       .  S
C878        C881   1.446       .  S
C881        N883   1.158       .  T
C882        N884   1.157       .  T
C885        C886   1.403       .  A
C885        C890   1.411       .  A
C886        C887   1.401       .  A
C886        H891   1.085       .  S
C887        C888   1.414       .  A
C887        C894   1.444       .  S
C888        C889   1.405       .  A
C889        C890   1.401       .  A
C889        H892   1.085       .  S
C890        C893   1.444       .  S
C893        N895   1.157       .  T
C894        N896   1.157       .  T
C897        C898   1.405       .  A
C897        C902   1.414       .  A
C898        C899   1.398       .  A
C898        H903   1.085       .  S
C899        C900   1.412       .  A
C899        C906   1.444       .  S
C900        C901   1.404       .  A
C901        C902   1.400       .  A
C901        H904   1.085       .  S
C902        C905   1.444       .  S
C905        N907   1.157       .  T
C906        N908   1.157       .  T
C909        C910   1.403       .  A
C909        C914   1.415       .  A
C910        C911   1.396   1_554  A
C910        H915   1.085       .  S
C911        C912   1.414       .  A
C911        C918   1.444       .  S
C912        C913   1.407       .  A
C913        C914   1.404   1_556  A
C913        H916   1.084       .  S
C914        C917   1.444       .  S
C917        N919   1.158       .  T
C918        N920   1.157       .  T
C921        C922   1.403       .  A
C921        C926   1.415       .  A
C922        C923   1.396       .  A
C922        H927   1.085       .  S
C923        C924   1.414       .  A
C923        C930   1.444       .  S
C924        C925   1.406       .  A
C925        C926   1.402       .  A
C925        H928   1.085       .  S
C926        C929   1.445       .  S
C929        N931   1.158       .  T
C930        N932   1.157       .  T
C933        C934   1.405       .  A
C933        C938   1.416       .  A
C934        C935   1.400       .  A
C934        H939   1.084       .  S
C935        C936   1.416       .  A
C935        C942   1.444       .  S
C936        C937   1.405       .  A
C937        C938   1.401       .  A
C937        H940   1.084       .  S
C938        C941   1.444       .  S
C941        N943   1.157       .  T
C942        N944   1.157       .  T
C945        C946   1.407       .  A
C945        C950   1.415       .  A
C946        C947   1.402   1_545  A
C946        H951   1.084       .  S
C947        C948   1.414       .  A
C947        C954   1.444       .  S
C948        C949   1.406       .  A
C949        C950   1.400   1_565  A
C949        H952   1.084       .  S
C950        C953   1.444       .  S
C953        N955   1.157       .  T
C954        N956   1.157       .  T
C957        C958   1.403       .  A
C957        C962   1.412       .  A
C958        C959   1.399       .  A
C958        H963   1.085       .  S
C959        C960   1.415       .  A
C959        C966   1.444       .  S
C960        C961   1.405       .  A
C961        C962   1.401       .  A
C961        H964   1.085       .  S
C962        C965   1.444       .  S
C965        N967   1.157       .  T
C966        N968   1.157       .  T
C969        C970   1.405       .  A
C969        C974   1.415       .  A
C970        C971   1.401   1_556  A
C970        H975   1.084       .  S
C971        C972   1.415       .  A
C971        C978   1.444       .  S
C972        C973   1.404       .  A
C973        C974   1.399   1_554  A
C973        H976   1.085       .  S
C974        C977   1.445       .  S
C977        N979   1.157       .  T
C978        N980   1.157       .  T
C981        C982   1.407       .  A
C981        C986   1.416       .  A
C982        C983   1.404       .  A
C982        H987   1.084       .  S
C983        C984   1.414       .  A
C983        C990   1.444       .  S
C984        C985   1.404       .  A
C985        C986   1.397       .  A
C985        H988   1.085       .  S
C986        C989   1.445       .  S
C989        N991   1.157       .  T
C990        N992   1.157       .  T
C993        C994   1.404       .  A
C993        C998   1.414       .  A
C994        C995   1.397       .  A
C994        H999   1.085       .  S
C995        C996   1.415       .  A
C995       C1002   1.444       .  S
C996        C997   1.406       .  A
C997        C998   1.401       .  A
C997       H1000   1.084       .  S
C998       C1001   1.444       .  S
C1001      N1003   1.157       .  T
C1002      N1004   1.157       .  T
C1005      C1006   1.405       .  A
C1005      C1010   1.416       .  A
C1006      C1007   1.400       .  A
C1006      H1011   1.084       .  S
C1007      C1008   1.414       .  A
C1007      C1014   1.444       .  S
C1008      C1009   1.405       .  A
C1009      C1010   1.401       .  A
C1009      H1012   1.084       .  S
C1010      C1013   1.444       .  S
C1013      N1015   1.157       .  T
C1014      N1016   1.157       .  T
C1017      C1018   1.407       .  A
C1017      C1022   1.416       .  A
C1018      C1019   1.401       .  A
C1018      H1023   1.084       .  S
C1019      C1020   1.411       .  A
C1019      C1026   1.444       .  S
C1020      C1021   1.403       .  A
C1021      C1022   1.401       .  A
C1021      H1024   1.085       .  S
C1022      C1025   1.444       .  S
C1025      N1027   1.157       .  T
C1026      N1028   1.157       .  T
C1029      C1030   1.404       .  A
C1029      C1034   1.415       .  A
C1030      C1031   1.397       .  A
C1030      H1035   1.084       .  S
C1031      C1032   1.411       .  A
C1031      C1038   1.445       .  S
C1032      C1033   1.404       .  A
C1033      C1034   1.403       .  A
C1033      H1036   1.084       .  S
C1034      C1037   1.444       .  S
C1037      N1039   1.157       .  T
C1038      N1040   1.157       .  T
C1041      C1042   1.406       .  A
C1041      C1046   1.416       .  A
C1042      C1043   1.402   1_556  A
C1042      H1047   1.084       .  S
C1043      C1044   1.416       .  A
C1043      C1050   1.444       .  S
C1044      C1045   1.405       .  A
C1045      C1046   1.400   1_554  A
C1045      H1048   1.085       .  S
C1046      C1049   1.445       .  S
C1049      N1051   1.158       .  T
C1050      N1052   1.157       .  T
C1053      C1054   1.404       .  A
C1053      C1058   1.414       .  A
C1054      C1055   1.398       .  A
C1054      H1059   1.085       .  S
C1055      C1056   1.415       .  A
C1055      C1062   1.444       .  S
C1056      C1057   1.406       .  A
C1057      C1058   1.401       .  A
C1057      H1060   1.084       .  S
C1058      C1061   1.444       .  S
C1061      N1063   1.157       .  T
C1062      N1064   1.157       .  T
C1065      C1066   1.405       .  A
C1065      C1070   1.415       .  A
C1066      C1067   1.401       .  A
C1066      H1071   1.085       .  S
C1067      C1068   1.416       .  A
C1067      C1074   1.445       .  S
C1068      C1069   1.405       .  A
C1069      C1070   1.401       .  A
C1069      H1072   1.084       .  S
C1070      C1073   1.444       .  S
C1073      N1075   1.157       .  T
C1074      N1076   1.157       .  T
C1077      C1078   1.407       .  A
C1077      C1082   1.414       .  A
C1078      C1079   1.404       .  A
C1078      H1083   1.085       .  S
C1079      C1080   1.415       .  A
C1079      C1086   1.444       .  S
C1080      C1081   1.405       .  A
C1081      C1082   1.398       .  A
C1081      H1084   1.085       .  S
C1082      C1085   1.444       .  S
C1085      N1087   1.157       .  T
C1086      N1088   1.157       .  T
C1089      C1090   1.405       .  A
C1089      C1094   1.413       .  A
C1090      C1091   1.402       .  A
C1090      H1095   1.085       .  S
C1091      C1092   1.416   1_545  A
C1091      C1098   1.444   1_545  S
C1092      C1093   1.408       .  A
C1093      C1094   1.403   1_565  A
C1093      H1096   1.084       .  S
C1094      C1097   1.444       .  S
C1097      N1099   1.157       .  T
C1098      N1100   1.157       .  T
C1101      C1102   1.404       .  A
C1101      C1106   1.415       .  A
C1102      C1103   1.400       .  A
C1102      H1107   1.085       .  S
C1103      C1104   1.414       .  A
C1103      C1110   1.444       .  S
C1104      C1105   1.405       .  A
C1105      C1106   1.402       .  A
C1105      H1108   1.084       .  S
C1106      C1109   1.444       .  S
C1109      N1111   1.157       .  T
C1110      N1112   1.157       .  T
C1113      C1114   1.407       .  A
C1113      C1118   1.416       .  A
C1114      C1115   1.402   1_554  A
C1114      H1119   1.084       .  S
C1115      C1116   1.415       .  A
C1115      C1122   1.445       .  S
C1116      C1117   1.404       .  A
C1117      C1118   1.400   1_556  A
C1117      H1120   1.085       .  S
C1118      C1121   1.444       .  S
C1121      N1123   1.157       .  T
C1122      N1124   1.158       .  T
C1125      C1126   1.406       .  A
C1125      C1130   1.413       .  A
C1126      C1127   1.406       .  A
C1126      H1131   1.084       .  S
C1127      C1128   1.417       .  A
C1127      C1134   1.445       .  S
C1128      C1129   1.403       .  A
C1129      C1130   1.396       .  A
C1129      H1132   1.085       .  S
C1130      C1133   1.444       .  S
C1133      N1135   1.157       .  T
C1134      N1136   1.158       .  T
C1137      C1138   1.404       .  A
C1137      C1142   1.412       .  A
C1138      C1139   1.400       .  A
C1138      H1143   1.085       .  S
C1139      C1140   1.415       .  A
C1139      C1146   1.445       .  S
C1140      C1141   1.406       .  A
C1141      C1142   1.401       .  A
C1141      H1144   1.085       .  S
C1142      C1145   1.444       .  S
C1145      N1147   1.157       .  T
C1146      N1148   1.157       .  T
C1149      C1150   1.403       .  A
C1149      C1154   1.414       .  A
C1150      C1151   1.401       .  A
C1150      H1155   1.085       .  S
C1151      C1152   1.416       .  A
C1151      C1158   1.443       .  S
C1152      C1153   1.406       .  A
C1153      C1154   1.400       .  A
C1153      H1156   1.085       .  S
C1154      C1157   1.445       .  S
C1157      N1159   1.158       .  T
C1158      N1160   1.157       .  T
C1161      C1162   1.407       .  A
C1161      C1166   1.417       .  A
C1162      C1163   1.404       .  A
C1162      H1167   1.084       .  S
C1163      C1164   1.415       .  A
C1163      C1170   1.443       .  S
C1164      C1165   1.405       .  A
C1165      C1166   1.400       .  A
C1165      H1168   1.085       .  S
C1166      C1169   1.445       .  S
C1169      N1171   1.157       .  T
C1170      N1172   1.157       .  T
C1173      C1174   1.405       .  A
C1173      C1178   1.414       .  A
C1174      C1175   1.403       .  A
C1174      H1179   1.085       .  S
C1175      C1176   1.416       .  A
C1175      C1182   1.444       .  S
C1176      C1177   1.406       .  A
C1177      C1178   1.402       .  A
C1177      H1180   1.085       .  S
C1178      C1181   1.444       .  S
C1181      N1183   1.157       .  T
C1182      N1184   1.157       .  T
