geometry optimzed in LAMMPS
_audit_creation_date              2020-12-01 
_audit_creation_method            'lammps2cif' 
_symmetry_space_group_name_H-M    'P1' 
_symmetry_Int_Tables_number       1 
_symmetry_cell_setting            triclinic 
loop_ 
_symmetry_equiv_pos_as_xyz 
  x,y,z 
_cell_length_a                    33.36782123 
_cell_length_b                    34.6338403239652 
_cell_length_c                    33.636229774068816 
_cell_angle_alpha                 89.82343082857507 
_cell_angle_beta                  89.97804789051953 
_cell_angle_gamma                 90.1491290614942 
loop_ 
_atom_site_label 
_atom_site_type_symbol 
_atom_site_fract_x 
_atom_site_fract_y 
_atom_site_fract_z 
_atom_site_charge 
C1          C  0.78216902  0.83975101  0.02564543     0.80500
N2          N  0.77902790  0.81426469  0.99509741    -0.77800
C3          C  0.80055694  0.81995615  0.96125674     0.82900
N4          N  0.82526104  0.85134832  0.95821582    -0.77800
C5          C  0.82770844  0.87731282  0.98839214     0.83000
N6          N  0.80623099  0.87119860  0.02197304    -0.79500
C7          C  0.75529507  0.17622157  0.02777955     0.80500
N8          N  0.73182400  0.17777202  0.99471993    -0.77800
C9          C  0.74217326  0.15732070  0.96176022     0.82900
N10         N  0.77609468  0.13513204  0.96225347    -0.77800
C11         C  0.80040296  0.13388103  0.99481191     0.83000
N12         N  0.78964114  0.15460319  0.02743576    -0.79500
C13         C  0.14372405  0.86966928  0.04483906     0.80500
N14         N  0.11048979  0.89241968  0.04354455    -0.77800
C15         C  0.09291477  0.90082017  0.00817392     0.82900
N16         N  0.10907362  0.88693484  0.97412112    -0.77800
C17         C  0.14260414  0.86471850  0.97531147     0.83000
N18         N  0.15959924  0.85589176  0.01068279    -0.79500
C19         C  0.79570929  0.05031582  0.80694919     0.80500
N20         N  0.82095819  0.04795555  0.83837383    -0.77800
C21         C  0.83351897  0.01338182  0.85203578     0.82900
N22         N  0.82095788  0.98062094  0.83351245    -0.77800
C23         C  0.79570389  0.98265887  0.80149987     0.83000
N24         N  0.78276192  0.01766073  0.78853932    -0.79500
C25         C  0.92397079  0.18973244  0.82239022     0.80500
N26         N  0.92508976  0.16949906  0.85739830    -0.77800
C27         C  0.95794426  0.14864195  0.86780601     0.82900
N28         N  0.98958884  0.14776059  0.84210767    -0.77800
C29         C  0.98919711  0.16832608  0.80734281     0.83000
N30         N  0.95613265  0.18914241  0.79749731    -0.79500
C31         C  0.91362308  0.86053977  0.82116016     0.80500
N32         N  0.94488378  0.85211848  0.79690197    -0.77800
C33         C  0.98136535  0.86810853  0.80363496     0.82900
N34         N  0.98659456  0.89234155  0.83498887    -0.77800
C35         C  0.95549616  0.90005992  0.85966053     0.83000
N36         N  0.91910142  0.88428382  0.85256062    -0.79500
C37         C  0.14838742  0.05301617  0.85303982     0.80500
N38         N  0.11690436  0.05265308  0.87833797    -0.77800
C39         C  0.09646976  0.01965136  0.88526532     0.82900
N40         N  0.10794876  0.98642361  0.86697321    -0.77800
C41         C  0.14020412  0.98653111  0.84191244     0.83000
N42         N  0.15995892  0.02003863  0.83476090    -0.79500
C43         C  0.90877573  0.82270012  0.14796491     0.80500
N44         N  0.90972201  0.85728942  0.12841083    -0.77800
C45         C  0.94514699  0.87448730  0.11917069     0.82900
N46         N  0.97978093  0.85604226  0.12860707    -0.77800
C47         C  0.97914233  0.82157782  0.14839406     0.83000
N48         N  0.94354225  0.80511038  0.15833335    -0.79500
C49         C  0.75798654  0.04668740  0.15852614     0.80500
N50         N  0.73280641  0.01598940  0.16431507    -0.77800
C51         C  0.74002249  0.98199704  0.14523925     0.82900
N52         N  0.77250481  0.97917444  0.12047468    -0.77800
C53         C  0.79807268  0.00950417  0.11538929     0.83000
N54         N  0.79050094  0.04296588  0.13455467    -0.79500
C55         C  0.90812735  0.15689438  0.20573857     0.80500
N56         N  0.90598486  0.13483756  0.17206997    -0.77800
C57         C  0.93694413  0.13393237  0.14561244     0.82900
N58         N  0.97069521  0.15444885  0.15399529    -0.77800
C59         C  0.97363159  0.17576146  0.18800504     0.83000
N60         N  0.94208984  0.17728070  0.21356423    -0.79500
Zr61       Zr  0.23775951  0.32065015  0.28786956     2.17500
O62         O  0.28015390  0.31099937  0.34620429    -0.51100
O63         O  0.24363592  0.38937893  0.28093539    -0.74300
O64         O  0.30566253  0.33458858  0.27374369    -0.81100
O65         O  0.16280433  0.29659081  0.36182035    -0.82800
O66         O  0.32159051  0.31047063  0.21313982    -0.78400
O67         O  0.20360076  0.34515554  0.34460475    -0.90100
O68         O  0.20171696  0.40961234  0.23214243    -0.76000
O69         O  0.23717338  0.33562344  0.21899794    -0.85500
O70         O  0.16978339  0.33723333  0.27546649    -0.85200
O71         O  0.26328929  0.26384038  0.25639333    -0.72000
O72         O  0.20113687  0.26506321  0.30975727    -0.84100
Zr73       Zr  0.15508263  0.23903838  0.19470280     2.26400
Zr74       Zr  0.25997168  0.27820606  0.18654176     2.06300
Zr75       Zr  0.13259810  0.28127540  0.29605579     2.10000
Zr76       Zr  0.16902367  0.35141234  0.20654030     1.78800
O77         O  0.09906844  0.24387783  0.34769280    -0.92900
O78         O  0.19335736  0.38204279  0.14580815    -0.40700
O79         O  0.12995017  0.29591712  0.22618267    -0.77400
O80         O  0.19129543  0.29492452  0.17176061    -0.96000
O81         O  0.22023030  0.22916674  0.21081418    -0.89300
O82         O  0.15537734  0.22429619  0.26355939    -0.92200
C83         C  0.22798039  0.41579916  0.25930341     1.01600
C84         C  0.18804659  0.32344944  0.37089641     1.14500
C85         C  0.33045137  0.32864225  0.24565378     1.05300
O86         O  0.28744461  0.31913859  0.13419190    -0.94300
O87         O  0.23577483  0.24999144  0.12263163    -0.90100
O88         O  0.19600484  0.20494352  0.14857650    -0.83200
C89         C  0.21093230  0.22167070  0.11851274     1.11900
O90         O  0.27409630  0.20545960  0.32769105    -0.96300
Zr91       Zr  0.22377885  0.20897228  0.27525031     1.88900
O92         O  0.14848013  0.17042829  0.20225085    -0.73000
O93         O  0.31192825  0.23087982  0.17265744    -0.52200
O94         O  0.27967780  0.16838208  0.25520409    -0.96900
O95         O  0.19687069  0.17457134  0.33289687    -0.54100
O96         O  0.19420879  0.15076174  0.24782973    -0.73500
C97         C  0.16642527  0.14426311  0.22245123     1.02300
O98         O  0.11579337  0.24532425  0.13382988    -0.62300
O99         O  0.08646516  0.33328496  0.31249439    -0.57100
O100        O  0.08624529  0.22626105  0.20765515    -0.93800
O101        O  0.07161895  0.24834147  0.26949366    -0.92200
O102        O  0.11859577  0.39747919  0.22838841    -0.92600
O103        O  0.11348856  0.35662850  0.15990675    -0.91400
C104        C  0.06213784  0.23105213  0.23667754     1.17700
H105        H  0.16109457  0.35990923  0.28967304     0.33600
H106        H  0.18722729  0.29903265  0.14375046     0.44500
H107        H  0.13801892  0.20292591  0.27028048     0.38000
H108        H  0.29054839  0.25923371  0.26431165     0.34500
H109        H  0.18321070  0.40884692  0.14714978     0.26300
H110        H  0.32340353  0.22459641  0.19902746     0.32200
H111        H  0.27479077  0.14332674  0.26864273     0.38100
H112        H  0.12233535  0.42028660  0.21092911     0.32600
H113        H  0.05945609  0.32201068  0.30859259     0.31500
H114        H  0.07770873  0.26105567  0.35776232     0.33200
H115        H  0.17354629  0.15977600  0.32293231     0.32100
H116        H  0.12171951  0.34102983  0.13669708     0.36100
H117        H  0.09465042  0.26431000  0.14029978     0.28900
H118        H  0.29619083  0.33492941  0.34904292     0.33100
H119        H  0.27525193  0.17795220  0.33574405     0.35900
H120        H  0.08896025  0.33629199  0.34165582     0.28600
H121        H  0.13331178  0.25913283  0.11475830     0.41400
H122        H  0.30618373  0.30218255  0.11957211     0.31500
H123        H  0.22265699  0.38455416  0.14974546     0.39100
H124        H  0.18503258  0.19489693  0.34984088     0.30900
H125        H  0.29719945  0.20727197  0.16477889     0.31000
H126        H  0.29970439  0.29092897  0.33841427     0.31300
C127        C  0.11077728  0.05671343  0.18191573     0.80500
N128        N  0.08115276  0.05240120  0.15485238    -0.77800
C129        C  0.06754075  0.01698485  0.14500958     0.82900
N130        N  0.08445298  0.98528486  0.16204145    -0.77800
C131        C  0.11461134  0.98930664  0.18926632     0.83000
N132        N  0.12767136  0.02516697  0.19920860    -0.79500
Zr133      Zr  0.23249037  0.73861058  0.31154687     2.17500
O134        O  0.29487866  0.70467696  0.29730693    -0.51100
O135        O  0.22133305  0.71323339  0.37754917    -0.74300
O136        O  0.28335135  0.76514818  0.35300742    -0.81100
O137        O  0.16765761  0.65629700  0.27501283    -0.82800
O138        O  0.29983990  0.81952397  0.32060540    -0.78400
O139        O  0.22751807  0.67119184  0.30310666    -0.90100
O140        O  0.17202829  0.74748183  0.40743292    -0.76000
O141        O  0.21045712  0.79448786  0.33865143    -0.85500
O142        O  0.16317930  0.72898684  0.32319385    -0.85200
O143        O  0.25292445  0.78832029  0.26575977    -0.72000
O144        O  0.20458982  0.72779513  0.24696888    -0.84100
Zr145      Zr  0.13127293  0.82889276  0.25179052     2.26400
Zr146      Zr  0.23233283  0.84562961  0.30041401     2.06300
Zr147      Zr  0.13429130  0.71937754  0.25910398     2.10000
Zr148      Zr  0.14440444  0.78704424  0.35601504     1.78800
O149        O  0.12665875  0.67647499  0.20235307    -0.92900
O150        O  0.15532102  0.82983390  0.41238766    -0.40700
O151        O  0.11219581  0.77647290  0.29356911    -0.77400
O152        O  0.16182195  0.84054972  0.31482156    -0.96000
O153        O  0.20062200  0.83763586  0.23724126    -0.89300
O154        O  0.15040974  0.77251243  0.21631320    -0.92200
C155        C  0.19879067  0.72135354  0.40723352     1.01600
C156        C  0.20161801  0.64684089  0.29113688     1.14500
C157        C  0.30948749  0.78931638  0.34129219     1.05300
O158        O  0.22943183  0.88326795  0.36136283    -0.94300
O159        O  0.20669649  0.90361965  0.26327584    -0.90100
O160        O  0.13956755  0.89595618  0.26193614    -0.83200
C161        C  0.17091255  0.91555841  0.25461278     1.11900
O162        O  0.28033594  0.74538512  0.18655393    -0.96300
Zr163      Zr  0.21945620  0.78078635  0.20304445     1.88900
O164        O  0.13463641  0.85396588  0.18537557    -0.73000
O165        O  0.28495945  0.89246518  0.28565393    -0.52200
O166        O  0.26841703  0.82360480  0.17191830    -0.96900
O167        O  0.20753307  0.73424713  0.15000482    -0.54100
O168        O  0.18422406  0.82081447  0.15434012    -0.73500
C169        C  0.15540795  0.84546186  0.15477794     0.98900
O170        O  0.06906686  0.85956725  0.27306435    -0.62300
O171        O  0.08228975  0.68668280  0.29729700    -0.57100
O172        O  0.07384845  0.80463515  0.21882684    -0.93800
O173        O  0.07245331  0.73902752  0.22282358    -0.92200
O174        O  0.09052896  0.74667888  0.38218157    -0.92600
O175        O  0.08410095  0.82487653  0.36795444    -0.91400
C176        C  0.05813944  0.77188269  0.21113798     1.17700
H177        H  0.15754732  0.70658964  0.33935843     0.33600
H178        H  0.15226210  0.86406126  0.32686356     0.44500
H179        H  0.13638927  0.77028590  0.19126433     0.38000
H180        H  0.28137324  0.78741256  0.26076660     0.34500
H181        H  0.14133710  0.81712440  0.43489279     0.26300
H182        H  0.30027451  0.89540789  0.31067934     0.32200
H183        H  0.26500977  0.81954284  0.14297335     0.38100
H184        H  0.08664120  0.75553836  0.40988602     0.32600
H185        H  0.06143295  0.70655988  0.30138420     0.31500
H186        H  0.10171137  0.66184682  0.20779276     0.33200
H187        H  0.20980409  0.74941007  0.12509448     0.32100
H188        H  0.09297625  0.85216328  0.36830107     0.36100
H189        H  0.05300430  0.83843878  0.28503785     0.28900
H190        H  0.30522761  0.69607685  0.32346161     0.33100
H191        H  0.28469545  0.74937029  0.15770647     0.35900
H192        H  0.07009798  0.66817763  0.27843895     0.28600
H193        H  0.07631061  0.87593742  0.29605448     0.41400
H194        H  0.24985166  0.87144772  0.37888915     0.31500
H195        H  0.18416334  0.82733798  0.41871000     0.39100
H196        H  0.17877090  0.72746884  0.15191456     0.30900
H197        H  0.30340691  0.87896875  0.26733220     0.31000
H198        H  0.31404778  0.72463892  0.28811194     0.31300
Zr199      Zr  0.74388294  0.22973328  0.20799252     2.17500
O200        O  0.80104562  0.23962347  0.16372862    -0.51100
O201        O  0.73602028  0.16063686  0.19930099    -0.74300
O202        O  0.80229554  0.20009813  0.23383907    -0.81100
O203        O  0.67055017  0.24941089  0.12427810    -0.82800
O204        O  0.81521139  0.22599937  0.29435518    -0.78400
O205        O  0.73090365  0.22308635  0.13910353    -0.90100
O206        O  0.68577370  0.14003569  0.23940536    -0.76000
O207        O  0.72622626  0.21434112  0.27121848    -0.85500
O208        O  0.67390972  0.21858850  0.20534923    -0.85200
O209        O  0.76881037  0.28060345  0.24938006    -0.72000
O210        O  0.71590465  0.29028799  0.18772290    -0.84100
Zr211      Zr  0.65265723  0.30793581  0.29565742     2.26400
Zr212      Zr  0.75189817  0.25900163  0.31531081     2.06300
Zr213      Zr  0.64478261  0.27949058  0.18716312     2.10000
Zr214      Zr  0.65975618  0.19790706  0.27117364     1.78800
O215        O  0.63911103  0.32969331  0.13664725    -0.92900
O216        O  0.67117065  0.15230188  0.32529502    -0.40700
O217        O  0.62844455  0.25778886  0.25323471    -0.77400
O218        O  0.68082343  0.24761783  0.31626305    -0.96000
O219        O  0.72259544  0.31970928  0.29757779    -0.89300
O220        O  0.66724045  0.32997527  0.23038666    -0.92200
C221        C  0.71347136  0.13401265  0.21377763     1.01600
C222        C  0.70291965  0.23088314  0.11464561     1.14500
C223        C  0.82508177  0.20555463  0.26365038     1.05300
O224        O  0.76088858  0.20972326  0.36626769    -0.94300
O225        O  0.72679659  0.29000416  0.37823421    -0.90100
O226        O  0.66824336  0.31967649  0.36307114    -0.83200
C227        C  0.69560176  0.31046645  0.38766556     1.11900
O228        O  0.78932985  0.34379743  0.18084492    -0.96300
Zr229      Zr  0.73755107  0.34075107  0.23192794     1.88900
O230        O  0.65795466  0.37728798  0.30269711    -0.73000
O231        O  0.80807475  0.29674794  0.34063086    -0.52200
O232        O  0.79731514  0.36577750  0.26455210    -0.96900
O233        O  0.72681430  0.39140580  0.18255199    -0.54100
O234        O  0.71120500  0.39772934  0.26636923    -0.73500
C235        C  0.68165823  0.40384949  0.29008057     0.98900
O236        O  0.59582519  0.29457561  0.33936867    -0.62300
O237        O  0.58721258  0.24490633  0.16048489    -0.57100
O238        O  0.59218675  0.33411752  0.27159918    -0.93800
O239        O  0.58249539  0.31479203  0.20786216    -0.92200
O240        O  0.60283759  0.17056666  0.23555210    -0.92600
O241        O  0.60101313  0.19136366  0.31376436    -0.91400
C242        C  0.57140406  0.33263886  0.23993697     1.17700
H243        H  0.66691496  0.19886794  0.18635174     0.33600
H244        H  0.67220467  0.24112797  0.34290043     0.44500
H245        H  0.65343835  0.35379806  0.22438351     0.38000
H246        H  0.79739254  0.28316986  0.24636218     0.34500
H247        H  0.65509546  0.12926240  0.31817751     0.26300
H248        H  0.82504431  0.30214533  0.31710665     0.32200
H249        H  0.79696534  0.39385614  0.25895796     0.38100
H250        H  0.60376946  0.14252913  0.24131786     0.32600
H251        H  0.58393948  0.25530408  0.13322148     0.31500
H252        H  0.66699258  0.33432403  0.12770053     0.33200
H253        H  0.73991118  0.41465151  0.19373695     0.32100
H254        H  0.60943799  0.20119185  0.34007187     0.36100
H255        H  0.57646171  0.28011407  0.32276318     0.28900
H256        H  0.81206687  0.21357798  0.15854600     0.33100
H257        H  0.80429531  0.36802872  0.18578804     0.35900
H258        H  0.59676781  0.21814913  0.15659872     0.28600
H259        H  0.60561935  0.27509976  0.35863738     0.41400
H260        H  0.73762127  0.19225018  0.36304129     0.31500
H261        H  0.69933215  0.14398097  0.32207493     0.39100
H262        H  0.69778196  0.39711467  0.18367639     0.30900
H263        H  0.79640172  0.32211262  0.34755608     0.31000
H264        H  0.82171552  0.25279965  0.17989472     0.31300
Zr265      Zr  0.64442169  0.72511953  0.28838423     2.17500
O266        O  0.59376133  0.67571155  0.27577411    -0.51100
O267        O  0.64177918  0.72480482  0.36012362    -0.74300
O268        O  0.66750651  0.66253309  0.30695615    -0.81100
O269        O  0.56238193  0.79993945  0.27681910    -0.82800
O270        O  0.72917135  0.65223080  0.28078449    -0.78400
O271        O  0.57685008  0.74081306  0.30215133    -0.90100
O272        O  0.68376502  0.77112985  0.38316272    -0.76000
O273        O  0.70969504  0.73745162  0.30220268    -0.85500
O274        O  0.64679690  0.79136261  0.30619170    -0.85200
O275        O  0.68136885  0.70444516  0.23151814    -0.72000
O276        O  0.62196105  0.75945929  0.23074101    -0.84100
Zr277      Zr  0.73316183  0.81636182  0.21173191     2.26400
Zr278      Zr  0.74961567  0.71520564  0.25126802     2.06300
Zr279      Zr  0.62650936  0.82667385  0.24799199     2.10000
Zr280      Zr  0.71496233  0.79957467  0.32468089     1.78800
O281        O  0.57516709  0.84321440  0.19946618    -0.92900
O282        O  0.77064619  0.78048889  0.36721265    -0.40700
O283        O  0.69497318  0.83693202  0.26784766    -0.77400
O284        O  0.75586241  0.78202072  0.26917061    -0.96000
O285        O  0.72977389  0.75050376  0.19334775    -0.89300
O286        O  0.66569043  0.80798807  0.19161281    -0.92200
C287        C  0.65787575  0.74420150  0.38833400     1.01600
C288        C  0.55244182  0.76821244  0.29518743     1.14500
C289        C  0.69776521  0.64105160  0.30019150     1.05300
O290        O  0.80323252  0.69903993  0.29740543    -0.94300
O291        O  0.81255367  0.73822730  0.21893087    -0.90100
O292        O  0.79884575  0.79787376  0.19459150    -0.83200
C293        C  0.82228708  0.76939703  0.19985443     1.11900
O294        O  0.60995642  0.69212875  0.16911966    -0.96300
Zr295      Zr  0.66182980  0.74154399  0.17436310     1.88900
O296        O  0.73747964  0.81556296  0.14019465    -0.73000
O297        O  0.76874327  0.66515900  0.20421525    -0.52200
O298        O  0.68674920  0.68634834  0.13710504    -0.96900
O299        O  0.60820962  0.76450719  0.13111236    -0.54100
O300        O  0.69695482  0.76809381  0.11683731    -0.73500
C301        C  0.72276451  0.79522698  0.11195169     0.98900
O302        O  0.78229130  0.86655884  0.22706025    -0.62300
O303        O  0.60380902  0.87712308  0.29285974    -0.57100
O304        O  0.71164040  0.87808739  0.19075880    -0.93800
O305        O  0.65041283  0.88954443  0.21767717    -0.92200
O306        O  0.68687583  0.85358449  0.36158663    -0.92600
O307        O  0.76592411  0.84971408  0.33127392    -0.91400
C308        C  0.68195406  0.90011873  0.19754499     1.17700
H309        H  0.62919245  0.79701975  0.32825288     0.33600
H310        H  0.78358020  0.78828663  0.27494194     0.44500
H311        H  0.65947260  0.82399857  0.16894227     0.38000
H312        H  0.67654373  0.67739301  0.22634849     0.34500
H313        H  0.76366716  0.79044491  0.39389500     0.26300
H314        H  0.78561830  0.64713789  0.21977086     0.32200
H315        H  0.67790430  0.69092251  0.10939300     0.38100
H316        H  0.70350531  0.85547676  0.38588910     0.32600
H317        H  0.59064495  0.86321999  0.31508109     0.31500
H318        H  0.56303056  0.86723372  0.20980713     0.33200
H319        H  0.61609784  0.79098085  0.12312848     0.32100
H320        H  0.75396069  0.87302039  0.31903142     0.36100
H321        H  0.76753746  0.88604053  0.24276468     0.28900
H322        H  0.58998848  0.66189819  0.30134515     0.33100
H323        H  0.60645519  0.68746725  0.14030283     0.35900
H324        H  0.62876618  0.88761223  0.30457538     0.28600
H325        H  0.80076079  0.85463251  0.24656273     0.41400
H326        H  0.79017380  0.69838597  0.32381578     0.31500
H327        H  0.76820824  0.75210868  0.36970861     0.39100
H328        H  0.58503315  0.76821407  0.14909410     0.30900
H329        H  0.74377252  0.65054459  0.19892129     0.31000
H330        H  0.60665342  0.65670898  0.25798337     0.31300
C331        C  0.13842702  0.17807059  0.04123045     0.80500
N332        N  0.14719254  0.19634618  0.00660508    -0.77800
C333        C  0.12295926  0.19217694  0.97457343     0.82900
N334        N  0.08931400  0.16964522  0.97731601    -0.77800
C335        C  0.07981816  0.15104718  0.01183043     0.83000
N336        N  0.10513365  0.15488871  0.04353424    -0.79500
Zr337      Zr  0.14899135  0.22539474  0.78996496     2.17500
O338        O  0.08772974  0.23062473  0.82910505    -0.51100
O339        O  0.16495651  0.15962793  0.80463667    -0.74300
O340        O  0.10121534  0.18627112  0.75577974    -0.81100
O341        O  0.21212286  0.25624277  0.87668883    -0.82800
O342        O  0.07928146  0.22433697  0.70652750    -0.78400
O343        O  0.15517787  0.22422337  0.85984118    -0.90100
O344        O  0.21560224  0.14054673  0.76439525    -0.76000
O345        O  0.17036559  0.21060645  0.72786104    -0.85500
O346        O  0.21947676  0.21868085  0.79581173    -0.85200
O347        O  0.12239849  0.27425256  0.74718647    -0.72000
O348        O  0.17248463  0.28719249  0.81105933    -0.84100
Zr349      Zr  0.23756479  0.30952742  0.70600964     2.26400
Zr350      Zr  0.14371784  0.25306508  0.68222849     2.06300
Zr351      Zr  0.24398467  0.28099313  0.81410093     2.10000
Zr352      Zr  0.23757501  0.19874510  0.73068643     1.78800
O353        O  0.25615301  0.33682812  0.85627123    -0.92900
O354        O  0.22775125  0.15241482  0.67723212    -0.40700
O355        O  0.26368583  0.26053194  0.74893145    -0.77400
O356        O  0.21527941  0.24710901  0.68502624    -0.96000
O357        O  0.16701660  0.31586490  0.70119010    -0.89300
O358        O  0.21907647  0.33056354  0.77075998    -0.92200
C359        C  0.18945411  0.13435172  0.79149493     1.01600
C360        C  0.17997245  0.23684010  0.88546692     1.14500
C361        C  0.07276205  0.20014573  0.73518090     1.05300
O362        O  0.13562505  0.19774558  0.63848934    -0.94300
O363        O  0.17509961  0.27873063  0.61919297    -0.90100
O364        O  0.22812108  0.31620031  0.63681004    -0.83200
C365        C  0.20546588  0.30096272  0.61075740     1.11900
O366        O  0.09036161  0.33271590  0.81047515    -0.96300
Zr367      Zr  0.14817149  0.33572100  0.76633630     1.88900
O368        O  0.22051818  0.37554665  0.69281893    -0.73000
O369        O  0.09102444  0.28619077  0.64557225    -0.52200
O370        O  0.08981447  0.36012312  0.73094701    -0.96900
O371        O  0.15225718  0.38420199  0.81861928    -0.54100
O372        O  0.17106141  0.39466949  0.73452143    -0.73500
C373        C  0.19692076  0.40103683  0.70718086     0.98900
O374        O  0.29868937  0.30202591  0.66675117    -0.62300
O375        O  0.29558956  0.24885614  0.85323522    -0.57100
O376        O  0.29044921  0.34365772  0.73807117    -0.93800
O377        O  0.30970241  0.30180983  0.78523836    -0.92200
O378        O  0.29601705  0.17333885  0.76526983    -0.92600
O379        O  0.29561737  0.19625646  0.68684236    -0.91400
C380        C  0.31783634  0.32676475  0.75766255     1.17700
H381        H  0.22724657  0.20007656  0.81569804     0.33600
H382        H  0.22612755  0.24082388  0.65932882     0.44500
H383        H  0.23036861  0.35534753  0.77752563     0.38000
H384        H  0.09366522  0.27593579  0.74977915     0.34500
H385        H  0.24185076  0.12884557  0.68624864     0.26300
H386        H  0.07340999  0.26528719  0.63562605     0.32200
H387        H  0.08370540  0.38506147  0.74389528     0.38100
H388        H  0.30002234  0.14726189  0.75395883     0.32600
H389        H  0.29440191  0.26127746  0.87969093     0.31500
H390        H  0.22963701  0.34281899  0.86790404     0.33200
H391        H  0.13520049  0.40569921  0.80912189     0.32100
H392        H  0.31402992  0.21639463  0.69699791     0.36100
H393        H  0.31776344  0.28887111  0.68472732     0.28900
H394        H  0.08016908  0.20378207  0.83604315     0.33100
H395        H  0.09999343  0.31877719  0.83436050     0.35900
H396        H  0.28530775  0.22236960  0.85775255     0.28600
H397        H  0.29252184  0.28202431  0.64667372     0.41400
H398        H  0.16254289  0.19389566  0.62678174     0.31500
H399        H  0.19895552  0.14557257  0.67850413     0.39100
H400        H  0.17993144  0.39447526  0.81711408     0.30900
H401        H  0.07492569  0.29925060  0.66626255     0.31000
H402        H  0.06674546  0.23964845  0.81054606     0.31300
Zr403      Zr  0.13726772  0.78200589  0.81356376     2.17500
O404        O  0.08418506  0.76284451  0.85943027    -0.51100
O405        O  0.13167908  0.85031014  0.82297225    -0.74300
O406        O  0.15782627  0.79661884  0.87917070    -0.81100
O407        O  0.06773553  0.78795855  0.72329618    -0.82800
O408        O  0.22453766  0.78565111  0.88694860    -0.78400
O409        O  0.07326248  0.80081869  0.78938733    -0.90100
O410        O  0.17946664  0.87971817  0.78536937    -0.76000
O411        O  0.20468964  0.80366077  0.81176724    -0.85500
O412        O  0.14623478  0.80740303  0.74864734    -0.85200
O413        O  0.17694091  0.72792867  0.83301658    -0.72000
O414        O  0.11898261  0.73010601  0.77103622    -0.84100
Zr415      Zr  0.23599644  0.72145080  0.72061205     2.26400
Zr416      Zr  0.24573904  0.74907951  0.82764859     2.06300
Zr417      Zr  0.13041567  0.75506846  0.70501218     2.10000
Zr418      Zr  0.21347720  0.82898821  0.74706130     1.78800
O419        O  0.07341405  0.71668427  0.68303826    -0.92900
O420        O  0.26776411  0.86550057  0.77746401    -0.40700
O421        O  0.19849557  0.77706981  0.70197907    -0.77400
O422        O  0.25501570  0.77421732  0.76189535    -0.96000
O423        O  0.22843445  0.69634368  0.78565139    -0.89300
O424        O  0.16866564  0.69970836  0.72317586    -0.92200
C425        C  0.15040145  0.88021407  0.81065891     1.01600
C426        C  0.05487344  0.80247418  0.75612130     1.14500
C427        C  0.19056996  0.79938288  0.89850606     1.05300
O428        O  0.30174092  0.78858718  0.85008807    -0.94300
O429        O  0.30935616  0.71773357  0.80466248    -0.90100
O430        O  0.29953277  0.69998605  0.74050208    -0.83200
C431        C  0.32073731  0.70154101  0.77180280     1.11900
O432        O  0.10755799  0.66646048  0.83837862    -0.96300
Zr433      Zr  0.16020888  0.67637068  0.78919736     1.88900
O434        O  0.23886833  0.65222229  0.71350735    -0.73000
O435        O  0.25687194  0.70303391  0.88137222    -0.52200
O436        O  0.18464121  0.63500945  0.84257553    -0.96900
O437        O  0.10849841  0.63353540  0.76314341    -0.54100
O438        O  0.19328734  0.62452648  0.75489538    -0.73500
C439        C  0.22074489  0.62290381  0.72848806     0.98900
O440        O  0.28874883  0.74232339  0.67502251    -0.62300
O441        O  0.12110993  0.80193033  0.65171346    -0.57100
O442        O  0.21948906  0.70825269  0.65416992    -0.93800
O443        O  0.15409119  0.72276083  0.64349760    -0.92200
O444        O  0.18812822  0.87241784  0.69590483    -0.92600
O445        O  0.26459852  0.84455872  0.69781677    -0.91400
C446        C  0.18807959  0.70826774  0.63279960     1.17700
H447        H  0.12919930  0.82933841  0.74355935     0.33600
H448        H  0.28297424  0.78086543  0.75760083     0.44500
H449        H  0.16367245  0.67888480  0.70475251     0.38000
H450        H  0.17091585  0.72060141  0.85996406     0.34500
H451        H  0.26470025  0.89203491  0.76688824     0.26300
H452        H  0.28193585  0.71195772  0.89418392     0.32200
H453        H  0.21259116  0.62881850  0.83509941     0.38100
H454        H  0.19585315  0.89854672  0.70500923     0.32600
H455        H  0.09331716  0.79754642  0.64240402     0.31500
H456        H  0.08358578  0.68987279  0.68221731     0.33200
H457        H  0.11330975  0.60847796  0.77656344     0.32100
H458        H  0.25541918  0.83179337  0.67312844     0.36100
H459        H  0.27562980  0.76091478  0.65682131     0.28900
H460        H  0.07801689  0.78644203  0.87481099     0.33100
H461        H  0.08439613  0.68130414  0.82818863     0.35900
H462        H  0.12013477  0.82721827  0.66531362     0.28600
H463        H  0.30696674  0.75855182  0.69116754     0.41400
H464        H  0.31478395  0.79783278  0.82537914     0.31500
H465        H  0.26018426  0.86751403  0.80584926     0.39100
H466        H  0.11595412  0.62898409  0.73505367     0.30900
H467        H  0.23565292  0.70856827  0.90111824     0.31000
H468        H  0.09717841  0.74530034  0.87878552     0.31300
Zr469      Zr  0.73893398  0.22780032  0.79908961     2.17500
O470        O  0.77757468  0.23211606  0.86048336    -0.51100
O471        O  0.75215065  0.16112101  0.78568121    -0.74300
O472        O  0.70729192  0.19005736  0.84956277    -0.81100
O473        O  0.82621981  0.25433361  0.73299516    -0.82800
O474        O  0.65273484  0.22423992  0.86726399    -0.78400
O475        O  0.80963527  0.22727010  0.79233370    -0.90100
O476        O  0.70913930  0.14052520  0.73823376    -0.76000
O477        O  0.67621301  0.21248278  0.77858139    -0.85500
O478        O  0.74458722  0.21953594  0.72923787    -0.85200
O479        O  0.69630239  0.27738109  0.82451380    -0.72000
O480        O  0.76036349  0.28914804  0.77440285    -0.84100
Zr481      Zr  0.65504916  0.30985116  0.70880054     2.26400
Zr482      Zr  0.63084441  0.25588684  0.80389037     2.06300
Zr483      Zr  0.76347301  0.28169114  0.70345691     2.10000
Zr484      Zr  0.67876167  0.19902142  0.71222203     1.78800
O485        O  0.81099664  0.33507196  0.70011341    -0.92900
O486        O  0.62228588  0.15537840  0.72250339    -0.40700
O487        O  0.69789815  0.26021925  0.68395474    -0.77400
O488        O  0.63345419  0.24820759  0.73300558    -0.96000
O489        O  0.64996671  0.31811063  0.77859084    -0.89300
O490        O  0.71992247  0.33151069  0.72667807    -0.92200
C491        C  0.73669939  0.13471096  0.76400819     1.01600
C492        C  0.83526613  0.23689901  0.76598207     1.14500
C493        C  0.68162046  0.20057037  0.87531071     1.05300
O494        O  0.58223222  0.20391282  0.81177359    -0.94300
O495        O  0.56728935  0.28102809  0.77364783    -0.90100
O496        O  0.58513677  0.31431910  0.71815403    -0.83200
C497        C  0.55888978  0.30111486  0.74209045     1.11900
O498        O  0.76067633  0.34047110  0.85379630    -0.96300
Zr499      Zr  0.71560559  0.33862702  0.79686733     1.88900
O500        O  0.64307635  0.37683576  0.72291169    -0.73000
O501        O  0.59738272  0.29180084  0.85645081    -0.52200
O502        O  0.68147239  0.36569112  0.85433690    -0.96900
O503        O  0.76941909  0.38542195  0.78651706    -0.54100
O504        O  0.68227634  0.39701805  0.77371691    -0.73500
C505        C  0.65613326  0.40296289  0.74649356     0.98900
O506        O  0.61641863  0.30191151  0.64770119    -0.62300
O507        O  0.79813023  0.25092326  0.64827195    -0.57100
O508        O  0.68342214  0.34480757  0.65478812    -0.93800
O509        O  0.73961814  0.31165640  0.63939224    -0.92200
O510        O  0.71404440  0.16984624  0.65650503    -0.92600
O511        O  0.63443188  0.19303342  0.65498429    -0.91400
C512        C  0.71045099  0.33482777  0.63020910     1.17700
H513        H  0.76430872  0.20051733  0.72208400     0.33600
H514        H  0.60752453  0.24163689  0.72259730     0.44500
H515        H  0.72659223  0.35594038  0.71443063     0.38000
H516        H  0.69837952  0.27896671  0.85312940     0.34500
H517        H  0.63052142  0.13083247  0.70992227     0.26300
H518        H  0.57820110  0.27312124  0.86822851     0.32200
H519        H  0.69045965  0.39294320  0.85532130     0.38100
H520        H  0.69899002  0.14581701  0.65074063     0.32600
H521        H  0.82676337  0.25754768  0.65203592     0.31500
H522        H  0.81160496  0.34258114  0.67170308     0.33200
H523        H  0.76273913  0.40720452  0.80431509     0.32100
H524        H  0.63871615  0.21698995  0.63944776     0.36100
H525        H  0.63574467  0.29245458  0.62765092     0.28900
H526        H  0.78248783  0.20508749  0.86882193     0.33100
H527        H  0.77283760  0.31444641  0.85475836     0.35900
H528        H  0.79645974  0.22292652  0.65405509     0.28600
H529        H  0.59883993  0.27932597  0.65266282     0.41400
H530        H  0.57364114  0.19786302  0.78431310     0.31500
H531        H  0.62239730  0.14977013  0.75137003     0.39100
H532        H  0.76520565  0.39583265  0.75940369     0.30900
H533        H  0.61804323  0.29548854  0.87722404     0.31000
H534        H  0.75898277  0.24255227  0.88068194     0.31300
Zr535      Zr  0.72484842  0.81656894  0.79805094     2.17500
O536        O  0.71353063  0.86527190  0.84904380    -0.51100
O537        O  0.79651488  0.82271353  0.79529076    -0.74300
O538        O  0.74864353  0.79413947  0.86013460    -0.81100
O539        O  0.71486558  0.89306261  0.71819845    -0.82800
O540        O  0.72691607  0.73300534  0.87201299    -0.78400
O541        O  0.73651500  0.88174086  0.78111644    -0.90100
O542        O  0.82043472  0.78115004  0.74912618    -0.76000
O543        O  0.74731314  0.75240450  0.78905222    -0.85500
O544        O  0.74208624  0.81388712  0.72977223    -0.85200
O545        O  0.67069510  0.77747334  0.82161690    -0.72000
O546        O  0.66532003  0.83590072  0.76441746    -0.84100
Zr547      Zr  0.64856661  0.72778622  0.70771821     2.26400
Zr548      Zr  0.69253154  0.71220355  0.80985321     2.06300
Zr549      Zr  0.68235445  0.83158418  0.69509684     2.10000
Zr550      Zr  0.76286836  0.74909828  0.72023117     1.78800
O551        O  0.63385482  0.88180110  0.67960994    -0.92900
O552        O  0.80691037  0.69737955  0.74247014    -0.40700
O553        O  0.70328749  0.76610993  0.68453634    -0.77400
O554        O  0.70860286  0.70807660  0.74031583    -0.96000
O555        O  0.63221752  0.73014855  0.77605995    -0.89300
O556        O  0.62705405  0.79234185  0.71686895    -0.92200
C557        C  0.82506592  0.80706572  0.77576921     1.01600
C558        C  0.73269817  0.90344753  0.75078513     1.14500
C559        C  0.74581157  0.76419709  0.88201361     1.05300
O560        O  0.74159615  0.66241712  0.82529271    -0.94300
O561        O  0.66465600  0.64953176  0.78571518    -0.90100
O562        O  0.63527278  0.66293917  0.72650756    -0.83200
C563        C  0.64425757  0.63970079  0.75456774     1.11900
O564        O  0.60723618  0.84623697  0.83538921    -0.96300
Zr565      Zr  0.61124017  0.79503460  0.78586058     1.88900
O566        O  0.57686598  0.72209923  0.71090094    -0.73000
O567        O  0.64627647  0.69094459  0.86152742    -0.52200
O568        O  0.57593872  0.77058011  0.84427207    -0.96900
O569        O  0.56380188  0.84430385  0.76451466    -0.54100
O570        O  0.55342387  0.75973789  0.76071528    -0.73500
C571        C  0.54856976  0.73508510  0.73275769     0.98900
O572        O  0.66184384  0.68207829  0.65420551    -0.62300
O573        O  0.72530413  0.85094455  0.63992047    -0.57100
O574        O  0.62552415  0.74876120  0.64495517    -0.93800
O575        O  0.65235745  0.80771343  0.63159768    -0.92200
O576        O  0.79763320  0.77710546  0.66331756    -0.92600
O577        O  0.77508163  0.70160579  0.66842960    -0.91400
C578        C  0.63230461  0.77710847  0.62170443     1.17700
H579        H  0.76359706  0.83149559  0.72317274     0.33600
H580        H  0.71514068  0.68173321  0.73326235     0.44500
H581        H  0.60363053  0.79778079  0.70117962     0.38000
H582        H  0.66646934  0.78167619  0.84972127     0.34500
H583        H  0.83282205  0.70260666  0.72911039     0.26300
H584        H  0.65961150  0.66846855  0.87401177     0.32200
H585        H  0.54868343  0.78169933  0.84238532     0.38100
H586        H  0.82636841  0.77189987  0.66826150     0.32600
H587        H  0.71386787  0.87566203  0.63045146     0.31500
H588        H  0.62155104  0.88820614  0.70554691     0.33200
H589        H  0.53896929  0.83853601  0.77954465     0.32100
H590        H  0.75081315  0.70244441  0.65155804     0.36100
H591        H  0.67728727  0.69675112  0.63402853     0.28900
H592        H  0.73998168  0.86958464  0.86167033     0.33100
H593        H  0.57865953  0.84801670  0.84307966     0.35900
H594        H  0.75113866  0.85819982  0.65232849     0.28600
H595        H  0.68161517  0.66368626  0.66526054     0.41400
H596        H  0.75027082  0.65256096  0.79906674     0.31500
H597        H  0.81206665  0.70295465  0.77087067     0.39100
H598        H  0.55709988  0.83783101  0.73666115     0.30900
H599        H  0.64736187  0.71141756  0.88197463     0.31000
H600        H  0.69718163  0.85227798  0.86970926     0.31300
C601        C  0.46373584  0.67392232  0.68942682     0.80500
N602        N  0.46054527  0.65075328  0.65716098    -0.77800
C603        C  0.42801392  0.62792976  0.65193637     0.82900
N604        N  0.39813886  0.62844502  0.67960081    -0.77800
C605        C  0.40077291  0.65219315  0.71199308     0.83000
N606        N  0.43370623  0.67486531  0.71671608    -0.79500
C607        C  0.24385826  0.48071207  0.64873890     0.80500
N608        N  0.23948009  0.51328549  0.67061624    -0.77800
C609        C  0.26521129  0.54331619  0.66541602     0.82900
N610        N  0.29570395  0.54026150  0.63922808    -0.77800
C611        C  0.30007225  0.50773189  0.61761383     0.83000
N612        N  0.27404438  0.47811967  0.62199575    -0.79500
C613        C  0.47179870  0.34126772  0.67849096     0.80500
N614        N  0.47206217  0.36127469  0.64325571    -0.77800
C615        C  0.43851338  0.37942410  0.62986365     0.82900
N616        N  0.40493219  0.37793446  0.65294770    -0.77800
C617        C  0.40414213  0.35764083  0.68785076     0.83000
N618        N  0.43780234  0.33956327  0.70066448    -0.79500
C619        C  0.59641473  0.48554595  0.69997845     0.80500
N620        N  0.60718057  0.51963516  0.71717793    -0.77800
C621        C  0.59431632  0.55344330  0.70085843     0.82900
N622        N  0.57163388  0.55279494  0.66709232    -0.77800
C623        C  0.56145522  0.51885277  0.64973918     0.83000
N624        N  0.57340940  0.48543890  0.66669774    -0.79500
C625        C  0.48792514  0.38578822  0.29441881     0.80500
N626        N  0.48905425  0.40488715  0.32998081    -0.77800
C627        C  0.45523210  0.40960145  0.35207363     0.82900
N628        N  0.41994696  0.39608839  0.33748212    -0.77800
C629        C  0.41832927  0.37742980  0.30179799     0.83000
N630        N  0.45245293  0.37196907  0.28049485    -0.79500
C631        C  0.63359324  0.49073096  0.34468383     0.80500
N632        N  0.60088451  0.49355908  0.36873275    -0.77800
C633        C  0.59067131  0.52768440  0.38553178     0.82900
N634        N  0.61374612  0.55919819  0.37845763    -0.77800
C635        C  0.64630957  0.55718844  0.35406436     0.83000
N636        N  0.65626753  0.52281937  0.33694040    -0.79500
C637        C  0.46481489  0.71382461  0.34851817     0.80500
N638        N  0.46560764  0.67933305  0.36859342    -0.77800
C639        C  0.43402220  0.66736925  0.39110463     0.82900
N640        N  0.40105334  0.69062696  0.39299172    -0.77800
C641        C  0.39921462  0.72473209  0.37217267     0.83000
N642        N  0.43141710  0.73634444  0.35015317    -0.79500
C643        C  0.28328644  0.49858799  0.30965832     0.80500
N644        N  0.31352248  0.49821465  0.33673782    -0.77800
C645        C  0.32078259  0.52922467  0.36001862     0.82900
N646        N  0.29700547  0.56091886  0.35623122    -0.77800
C647        C  0.26682334  0.56194748  0.32871244     0.83000
N648        N  0.25985180  0.53051922  0.30557869    -0.79500
C649        C  0.60260517  0.69807180  0.47632391     0.80500
N650        N  0.58027814  0.66559116  0.48097831    -0.77800
C651        C  0.55961588  0.65914873  0.51496280     0.82900
N652        N  0.56081814  0.68592870  0.54438853    -0.77800
C653        C  0.58386203  0.71834087  0.54047892     0.83000
N654        N  0.60480402  0.72435328  0.50631237    -0.79500
C655        C  0.64127137  0.36231141  0.47531776     0.80500
N656        N  0.60636685  0.38304070  0.47546299    -0.77800
C657        C  0.59414236  0.40247370  0.50836919     0.82900
N658        N  0.61754160  0.40069600  0.54160935    -0.77800
C659        C  0.65200263  0.37916539  0.54236039     0.83000
N660        N  0.66383381  0.36012455  0.50897436    -0.79500
C661        C  0.24162746  0.65291413  0.48223207     0.80500
N662        N  0.27610495  0.63276133  0.48197616    -0.77800
C663        C  0.29387842  0.62270588  0.51642601     0.82900
N664        N  0.27632480  0.63172479  0.55161764    -0.77800
C665        C  0.24110533  0.65157056  0.55192488     0.83000
N666        N  0.22419178  0.66262678  0.51719226    -0.79500
C667        C  0.25886758  0.35496540  0.45508366     0.80500
N668        N  0.29345416  0.37609108  0.45450580    -0.77800
C669        C  0.31662019  0.37964232  0.48753264     0.82900
N670        N  0.30341145  0.36311269  0.52200295    -0.77800
C671        C  0.26843529  0.34223951  0.52306025     0.83000
N672        N  0.24631870  0.33823183  0.48945498    -0.79500
O673        O  0.84098843  0.94475609  0.98801082    -0.86200
O674        O  0.06643662  0.96305177  0.01211800    -0.86400
O675        O  0.95727097  0.91264371  0.92816757    -0.88100
O676        O  0.95256977  0.90148654  0.05596489    -0.86800
O677        O  0.93980575  0.94317609  0.10752464    -0.86400
O678        O  0.96250688  0.96281574  0.88363990    -0.87800
O679        O  0.02337234  0.91274587  0.99919861    -0.86300
O680        O  0.89343921  0.90181010  0.98744062    -0.85900
Zr681      Zr  0.95489986  0.93912021  0.99531438     2.84300
O682        O  0.98675688  0.97794178  0.04274050    -1.07800
O683        O  0.91598480  0.97804331  0.95352638    -1.08600
C684        C  0.85579056  0.91016602  0.98691482     1.06900
C685        C  0.05852653  0.92706984  0.00650203     1.06800
C686        C  0.95971912  0.92679035  0.89268109     1.09800
C687        C  0.94598719  0.90888778  0.09285738     1.07600
H688        H  0.01588474  0.96830704  0.94751259     0.33100
O689        O  0.99670616  0.98286094  0.96276335    -1.28800
H690        H  0.88947579  0.95394001  0.04707634     0.32800
O691        O  0.90659200  0.97215257  0.03330999    -1.30500
O692        O  0.05932320  0.08592336  0.01547352    -0.86200
O693        O  0.82904519  0.07138251  0.98926138    -0.87700
O694        O  0.02667791  0.02022991  0.89565791    -0.86300
O695        O  0.00102288  0.01086465  0.12027594    -0.86400
O696        O  0.86862877  0.00898548  0.10451962    -0.86100
O697        O  0.89790854  0.01847782  0.88020503    -0.85900
O698        O  0.94701502  0.13043287  0.93748992    -0.86200
O699        O  0.93940698  0.12206920  0.07474508    -0.85700
O700        O  0.96262973  0.08498608  0.89021972    -0.86800
O701        O  0.93357210  0.07094657  0.11859197    -0.85900
O702        O  0.06893792  0.02330740  0.94940790    -0.86300
O703        O  0.84402853  0.00859946  0.92160690    -0.86100
O704        O  0.82623947  0.00666114  0.05069915    -0.85700
O705        O  0.05392418  0.01817551  0.07706858    -0.86100
O706        O  0.00964622  0.13129925  0.00783908    -0.86400
O707        O  0.87183146  0.12204944  0.00268703    -0.87700
Zr708      Zr  0.02811076  0.02242837  0.00973883     2.83100
Zr709      Zr  0.86797111  0.01121534  0.99078534     2.83500
Zr710      Zr  0.95814148  0.02212365  0.92126775     2.84100
Zr711      Zr  0.93880906  0.01069542  0.08072348     2.83400
Zr712      Zr  0.94272554  0.09726037  0.00461927     2.84200
O713        O  0.90192729  0.05046726  0.03694880    -1.08300
O714        O  0.99028966  0.06217688  0.96756882    -1.07800
C715        C  0.04713961  0.12112842  0.01220751     1.06800
C716        C  0.83627523  0.10759669  0.99567805     1.09500
C717        C  0.06177513  0.02083541  0.91178600     1.07000
C718        C  0.03884079  0.01410606  0.11210801     1.07400
C719        C  0.83327388  0.00745658  0.08849127     1.07000
C720        C  0.86027900  0.01254455  0.88684938     1.06500
C721        C  0.95589419  0.11994675  0.90113602     1.06900
C722        C  0.93602017  0.10745855  0.11049369     1.06400
H723        H  0.89418172  0.07189381  0.94051079     0.33100
O724        O  0.91008635  0.05638861  0.95836776    -1.29400
H725        H  0.99441293  0.07137334  0.06605998     0.33100
O726        O  0.98007991  0.05594783  0.04690563    -1.30800
O727        O  0.42967463  0.61789315  0.58225834    -0.86200
O728        O  0.44889267  0.40047400  0.56070353    -0.86400
O729        O  0.36853079  0.50751497  0.60634948    -0.88100
O730        O  0.49765904  0.51063326  0.62184718    -0.86800
O731        O  0.55039365  0.52380693  0.57997045    -0.86400
O732        O  0.32539636  0.50146212  0.55353098    -0.87800
O733        O  0.43492544  0.44391408  0.61043295    -0.86300
O734        O  0.42710839  0.56527909  0.62386444    -0.85900
Zr735      Zr  0.43669938  0.50814883  0.58217316     2.84300
O736        O  0.48419458  0.47667318  0.54241072    -1.07800
O737        O  0.39564362  0.54637238  0.54257038    -1.08600
C738        C  0.42711026  0.60201232  0.61709792     1.06900
C739        C  0.44112227  0.40942078  0.59776442     1.06800
C740        C  0.33347162  0.50472463  0.59073418     1.09800
C741        C  0.53493344  0.51781240  0.61481650     1.07600
H742        H  0.38748064  0.45073507  0.54836365     0.33100
O743        O  0.40451217  0.46915439  0.53471618    -1.28800
H744        H  0.48992618  0.57079779  0.57120467     0.32800
O745        O  0.47638561  0.55523118  0.55154899    -1.30500
O746        O  0.45427122  0.41685593  0.42354959    -0.86200
O747        O  0.42973026  0.63619538  0.45414241    -0.87700
O748        O  0.33570163  0.44467136  0.48625192    -0.86300
O749        O  0.56402779  0.46454808  0.51317560    -0.86400
O750        O  0.54847100  0.59146535  0.51377168    -0.86100
O751        O  0.32360242  0.56406667  0.50400987    -0.85900
O752        O  0.38824785  0.52984712  0.38414598    -0.86200
O753        O  0.52041245  0.53126883  0.39734059    -0.85700
O754        O  0.33636560  0.51854210  0.42754966    -0.86800
O755        O  0.56380135  0.52831731  0.45041179    -0.85900
O756        O  0.38653662  0.40030612  0.49146987    -0.86300
O757        O  0.36418527  0.61551185  0.51973202    -0.86100
O758        O  0.49499989  0.63289749  0.51995717    -0.85700
O759        O  0.52275685  0.41301027  0.49880409    -0.86100
O760        O  0.45585137  0.47061742  0.38266688    -0.86400
O761        O  0.44699750  0.59850549  0.40066065    -0.87700
Zr762      Zr  0.45181119  0.43696666  0.49518140     2.83100
Zr763      Zr  0.43418145  0.59470647  0.51328319     2.83500
Zr764      Zr  0.36497064  0.50841716  0.49377848     2.84100
Zr765      Zr  0.52395787  0.52421808  0.51147659     2.83400
Zr766      Zr  0.45112343  0.52889172  0.42322717     2.84200
O767        O  0.48311243  0.56518582  0.47273672    -1.08300
O768        O  0.41335704  0.47898489  0.45428203    -1.07800
C769        C  0.45556882  0.43371640  0.38872881     1.06800
C770        C  0.43706114  0.63153693  0.41668503     1.09500
C771        C  0.34877547  0.40976527  0.48827611     1.07000
C772        C  0.55775561  0.42813405  0.50683862     1.07400
C773        C  0.53276238  0.62552299  0.51726445     1.07000
C774        C  0.32968589  0.59924720  0.51425353     1.06500
C775        C  0.35049158  0.52602169  0.39259632     1.06900
C776        C  0.55600136  0.52974300  0.41279310     1.06400
H777        H  0.38531530  0.57409937  0.44852284     0.33100
O778        O  0.40271924  0.55762922  0.46390402    -1.29400
H779        H  0.50924268  0.47395924  0.44744472     0.33100
O780        O  0.48974929  0.48679169  0.46396212    -1.30800
C781        C  0.61752364  0.77069579  0.58049029    -0.16200
C782        C  0.58790814  0.74424401  0.57514946    -0.31400
H783        H  0.63568512  0.78057479  0.55565992     0.12800
H784        H  0.56978047  0.73590434  0.60067875     0.13400
C785        C  0.63055848  0.59903580  0.74812663    -0.16200
C786        C  0.60533291  0.59155471  0.71732903    -0.31400
H787        H  0.64280391  0.57574357  0.76600986     0.12800
H788        H  0.59280523  0.61558311  0.70065056     0.13400
C789        C  0.50804204  0.71933504  0.72587932    -0.16200
C790        C  0.50104377  0.69578023  0.69492720    -0.31400
H791        H  0.48454755  0.72538169  0.74732758     0.12800
H792        H  0.52455644  0.69055293  0.67323178     0.13400
C793        C  0.70375421  0.34877278  0.58846141    -0.16200
C794        C  0.67347967  0.37419796  0.58088283    -0.31400
H795        H  0.71857237  0.33394090  0.56419002     0.12800
H796        H  0.65971537  0.38919721  0.60569659     0.13400
C797        C  0.51678471  0.31035703  0.73044575    -0.16200
C798        C  0.50971555  0.32461673  0.69324815    -0.31400
H799        H  0.49265142  0.30716923  0.75187264     0.12800
H800        H  0.53424322  0.32669861  0.67210685     0.13400
C801        C  0.60994819  0.44798891  0.71493392    -0.16200
C802        C  0.64021181  0.44243399  0.74069700    -0.31400
H803        H  0.59594945  0.42320539  0.70079021     0.12800
H804        H  0.65457515  0.46672921  0.75531588     0.13400
C805        C  0.22399342  0.66387112  0.58992044    -0.16200
C806        C  0.19348378  0.68943072  0.59383350    -0.31400
H807        H  0.24025220  0.65413380  0.61610602     0.12800
H808        H  0.17568445  0.69856165  0.56849683     0.13400
C809        C  0.36126343  0.68459533  0.76638059    -0.16200
C810        C  0.36553985  0.65651675  0.73845742    -0.31400
H811        H  0.38705915  0.70034532  0.77754512     0.12800
H812        H  0.33901395  0.64062719  0.72910506     0.13400
C813        C  0.23080596  0.58459413  0.71334939    -0.16200
C814        C  0.25951118  0.57991280  0.68605451    -0.31400
H815        H  0.21271280  0.56019170  0.72308513     0.12800
H816        H  0.27809215  0.60417387  0.67682873     0.13400
C817        C  0.25359585  0.32731216  0.56171578    -0.16200
C818        C  0.21733245  0.31016235  0.56882447    -0.31400
H819        H  0.27385733  0.33261956  0.58637345     0.12800
H820        H  0.19694961  0.30375945  0.54456236     0.13400
C821        C  0.20189994  0.44052314  0.69213308    -0.16200
C822        C  0.22055698  0.44599588  0.65725052    -0.31400
H823        H  0.19601665  0.46449007  0.71205485     0.12800
H824        H  0.22556257  0.42157126  0.63761641     0.13400
C825        C  0.35978697  0.33400774  0.74401992    -0.16200
C826        C  0.36630295  0.35573167  0.71084733    -0.31400
H827        H  0.38418176  0.31805751  0.75764539     0.12800
H828        H  0.34140767  0.37112846  0.69739694     0.13400
C829        C  0.13405324  0.20947116  0.93586754    -0.16200
C830        C  0.16975615  0.22687546  0.92743515    -0.31400
H831        H  0.11216853  0.20521881  0.91238052     0.12800
H832        H  0.19181818  0.23164328  0.95063781     0.13400
C833        C  0.64481901  0.73569769  0.42938375    -0.16200
C834        C  0.62114529  0.70522723  0.43733935    -0.31400
H835        H  0.65350596  0.75537038  0.45297571     0.12800
H836        H  0.61344263  0.68515690  0.41373595     0.13400
C837        C  0.51073121  0.76110156  0.31074841    -0.16200
C838        C  0.50140347  0.72564444  0.32623487    -0.31400
H839        H  0.48911254  0.78445354  0.31144417     0.12800
H840        H  0.52362727  0.70285207  0.32476499     0.13400
C841        C  0.69347680  0.60059512  0.31495457    -0.16200
C842        C  0.66739154  0.59385000  0.34506127    -0.31400
H843        H  0.70644944  0.57697005  0.29820744     0.12800
H844        H  0.65616972  0.61850104  0.36162383     0.13400
C845        C  0.68875515  0.32525204  0.42911212    -0.16200
C846        C  0.65332262  0.34308720  0.43775933    -0.31400
H847        H  0.71198777  0.32243817  0.45150893     0.12800
H848        H  0.63058621  0.34522562  0.41477143     0.13400
C849        C  0.67440448  0.44404474  0.30409448    -0.16200
C850        C  0.64316660  0.45220689  0.32812866    -0.31400
H851        H  0.69484311  0.46684996  0.29491742     0.12800
H852        H  0.62296092  0.42902250  0.33685749     0.13400
C853        C  0.53148263  0.35163912  0.24384493    -0.16200
C854        C  0.52620328  0.37740377  0.27392292    -0.31400
H855        H  0.50606068  0.34022687  0.22748670     0.12800
H856        H  0.55251340  0.38910823  0.28873236     0.13400
C857        C  0.20431446  0.69984109  0.44397919    -0.16200
C858        C  0.22712069  0.66830032  0.44480194    -0.31400
H859        H  0.19170323  0.71165003  0.47114484     0.12800
H860        H  0.23992691  0.65676262  0.41759313     0.13400
C861        C  0.21399158  0.60571852  0.29719448    -0.16200
C862        C  0.24348622  0.59809112  0.32416890    -0.31400
H863        H  0.20169580  0.58307611  0.27854447     0.12800
H864        H  0.25361017  0.62121935  0.34352811     0.13400
C865        C  0.35231702  0.77853626  0.34930376    -0.16200
C866        C  0.36078480  0.74677563  0.37187972    -0.31400
H867        H  0.37592480  0.79284261  0.33257161     0.12800
H868        H  0.33665803  0.73333730  0.38869350     0.13400
C869        C  0.16332476  0.95255659  0.23325593    -0.16200
C870        C  0.13068404  0.95448570  0.20906033    -0.31400
H871        H  0.18299983  0.97723487  0.23736132     0.12800
H872        H  0.11330844  0.92841381  0.20379857     0.13400
C873        C  0.20342018  0.32831611  0.41209426    -0.16200
C874        C  0.23509052  0.35222553  0.41829987    -0.31400
H875        H  0.19215741  0.30990560  0.43580187     0.12800
H876        H  0.24640375  0.36984227  0.39397429     0.13400
C877        C  0.37171188  0.34372099  0.25334180    -0.16200
C878        C  0.37915829  0.36296373  0.28781185    -0.31400
H879        H  0.39556927  0.33837905  0.23212248     0.12800
H880        H  0.35478015  0.36837001  0.30845046     0.13400
C881        C  0.24052306  0.45590479  0.26781556    -0.16200
C882        C  0.27396405  0.46224685  0.28921187    -0.31400
H883        H  0.22082053  0.47958211  0.25974416     0.12800
H884        H  0.29370662  0.43817263  0.29599659     0.13400
C885        C  0.19501868  0.20972258  0.07895478    -0.16200
C886        C  0.16376208  0.18435267  0.07688509    -0.31400
H887        H  0.20514189  0.22498943  0.05253541     0.12800
H888        H  0.15365678  0.16969487  0.10368675     0.13400
C889        C  0.12417149  0.09589128  0.19086067    -0.16200
C890        C  0.15409927  0.10402933  0.21603510    -0.31400
H891        H  0.10867786  0.11904673  0.17534867     0.12800
H892        H  0.16964874  0.08110479  0.23179805     0.13400
C893        C  0.86609240  0.18918186  0.25856192    -0.16200
C894        C  0.87164876  0.16141267  0.23055118    -0.31400
H895        H  0.89144449  0.20495557  0.27067329     0.12800
H896        H  0.84564543  0.14547511  0.21999161     0.13400
C897        C  0.01181549  0.19593702  0.19661548    -0.16200
C898        C  0.02113797  0.21455853  0.23094116    -0.31400
H899        H  0.03415986  0.19384990  0.17322690     0.12800
H900        H  0.99931465  0.21660191  0.25479047     0.13400
C901        C  0.68802577  0.94049435  0.18213971    -0.16200
C902        C  0.71616566  0.94632019  0.15321237    -0.31400
H903        H  0.67519492  0.96466145  0.19814316     0.12800
H904        H  0.72692638  0.92125944  0.13703697     0.13400
C905        C  0.71954717  0.09388125  0.19971074    -0.16200
C906        C  0.75079959  0.08497387  0.17627255    -0.31400
H907        H  0.69808470  0.07172202  0.20825935     0.12800
H908        H  0.77233002  0.10737792  0.16851754     0.13400
C909        C  0.01734733  0.80500380  0.16205265    -0.16200
C910        C  0.02108761  0.77444261  0.18705195    -0.31400
H911        H  0.04376203  0.82226870  0.15516687     0.12800
H912        H  0.99593333  0.75552011  0.19360867     0.13400
C913        C  0.86323777  0.77546133  0.18337515    -0.16200
C914        C  0.86960327  0.80618471  0.15888925    -0.31400
H915        H  0.88797553  0.75780183  0.19375269     0.12800
H916        H  0.84420970  0.82279719  0.14812155     0.13400
C917        C  0.13645356  0.91687793  0.82801795    -0.16200
C918        C  0.15427938  0.95102822  0.82198589    -0.31400
H919        H  0.11073136  0.91524249  0.84780613     0.12800
H920        H  0.18027700  0.95298681  0.80260399     0.13400
C921        C  0.16553878  0.09021622  0.84210656    -0.16200
C922        C  0.18611684  0.09548991  0.80829462    -0.31400
H923        H  0.15554528  0.11496184  0.85927572     0.12800
H924        H  0.19676627  0.07114596  0.79099117     0.13400
C925        C  0.87356987  0.84502620  0.81362940    -0.16200
C926        C  0.86601703  0.82018992  0.78404652    -0.31400
H927        H  0.84948387  0.85493711  0.83280373     0.12800
H928        H  0.89014329  0.80971706  0.76527536     0.13400
C929        C  0.01660745  0.85576733  0.78100842    -0.16200
C930        C  0.01714737  0.82420507  0.75756230    -0.31400
H931        H  0.04497309  0.86846065  0.79029926     0.12800
H932        H  0.98974980  0.81084953  0.74683274     0.13400
C933        C  0.87746059  0.22535799  0.77516890    -0.16200
C934        C  0.88615458  0.20923014  0.81112437    -0.31400
H935        H  0.90027955  0.22764867  0.75226156     0.12800
H936        H  0.86292511  0.20757281  0.83370155     0.13400
C937        C  0.02569885  0.16871701  0.78198450    -0.16200
C938        C  0.03122275  0.19093934  0.74899967    -0.31400
H939        H  0.05093495  0.15268095  0.79394300     0.12800
H940        H  0.00632066  0.20698903  0.73645361     0.13400
C941        C  0.75119253  0.94243695  0.75603804    -0.16200
C942        C  0.78079468  0.94630395  0.78371232    -0.31400
H943        H  0.73895800  0.96735501  0.74065043     0.12800
H944        H  0.79330716  0.92041840  0.79716872     0.13400
C945        C  0.78194608  0.08866132  0.79512642    -0.16200
C946        C  0.75151286  0.09511010  0.76991396    -0.31400
H947        H  0.79649533  0.11275024  0.80998822     0.12800
H948        H  0.73658408  0.07129164  0.75502055     0.13400
C949        C  0.16076260  0.85647081  0.08275184    -0.16200
C950        C  0.14364673  0.86478424  0.11763797    -0.31400
H951        H  0.18603137  0.83676858  0.08159330     0.12800
H952        H  0.11819070  0.88429053  0.11872248     0.13400
C953        C  0.18704136  0.82120297  0.93591531    -0.16200
C954        C  0.15757232  0.84788678  0.93835143    -0.31400
H955        H  0.20575731  0.81400525  0.96126276     0.12800
H956        H  0.14068008  0.85560791  0.91184896     0.13400
C957        C  0.70969587  0.21577478  0.07335449    -0.16200
C958        C  0.74467695  0.19713124  0.06481826    -0.31400
H959        H  0.68614360  0.21806677  0.05122132     0.12800
H960        H  0.76768441  0.19523781  0.08755539     0.13400
C961        C  0.71985946  0.16161864  0.92374820    -0.16200
C962        C  0.68942999  0.18687073  0.91681090    -0.31400
H963        H  0.73299733  0.14638801  0.89874796     0.12800
H964        H  0.67535410  0.20195586  0.94135709     0.13400
C965        C  0.73748162  0.80301810  0.07126373    -0.16200
C966        C  0.76197565  0.83309564  0.06390700    -0.31400
H967        H  0.72949733  0.78312689  0.04762294     0.12800
H968        H  0.76914926  0.85324298  0.08759349     0.13400
C969        C  0.76431889  0.76905945  0.92184465    -0.16200
C970        C  0.79396513  0.79572748  0.92571471    -0.31400
H971        H  0.74884158  0.75757725  0.94771625     0.12800
H972        H  0.80959123  0.80549908  0.89910729     0.13400
loop_ 
_geom_bond_atom_site_label_1 
_geom_bond_atom_site_label_2 
_geom_bond_distance 
_geom_bond_site_symmetry_2 
_ccdc_geom_bond_type 
C1            N2   1.361   1_554  A
C1            N6   1.357       .  A
C1          C966   1.470       .  S
N2            C3   1.359       .  A
C3            N4   1.366       .  A
C3          C970   1.479       .  S
N4            C5   1.360       .  A
C5            N6   1.353   1_556  A
C5          C684   1.473       .  S
C7            N8   1.361   1_554  A
C7           N12   1.371       .  A
C7          C958   1.486       .  S
N8            C9   1.362       .  A
C9           N10   1.370       .  A
C9          C961   1.487       .  S
N10          C11   1.364       .  A
C11          N12   1.362   1_556  A
C11         C716   1.506       .  S
C13          N14   1.363       .  A
C13          N18   1.354       .  A
C13         C949   1.469       .  S
N14          C15   1.358       .  A
C15          N16   1.356   1_554  A
C15         C685   1.467       .  S
N16          C17   1.360       .  A
C17          N18   1.353   1_556  A
C17         C954   1.463       .  S
C19          N20   1.354       .  A
C19          N24   1.361       .  A
C19         C945   1.460       .  S
N20          C21   1.349       .  A
C21          N22   1.361   1_545  A
C21         C720   1.473       .  S
N22          C23   1.369       .  A
C23          N24   1.359   1_565  A
C23         C942   1.481       .  S
C25          N26   1.369       .  A
C25          N30   1.361       .  A
C25         C934   1.482       .  S
N26          C27   1.360       .  A
C27          N28   1.365       .  A
C27         C721   1.497       .  S
N28          C29   1.367       .  A
C29          N30   1.360       .  A
C29         C937   1.487   1_655  S
C31          N32   1.357       .  A
C31          N36   1.353       .  A
C31         C925   1.462       .  S
N32          C33   1.355       .  A
C33          N34   1.361       .  A
C33         C929   1.466   1_655  S
N34          C35   1.356       .  A
C35          N36   1.352       .  A
C35         C686   1.455       .  S
C37          N38   1.352       .  A
C37          N42   1.356       .  A
C37         C921   1.455       .  S
N38          C39   1.349       .  A
C39          N40   1.362   1_545  A
C39         C717   1.462       .  S
N40          C41   1.367       .  A
C41          N42   1.354   1_565  A
C41         C918   1.480       .  S
C43          N44   1.365       .  A
C43          N48   1.357       .  A
C43         C914   1.471       .  S
N44          C45   1.358       .  A
C45          N46   1.359       .  A
C45         C687   1.482       .  S
N46          C47   1.365       .  A
C47          N48   1.358       .  A
C47         C909   1.473   1_655  S
C49          N50   1.367       .  A
C49          N54   1.358       .  A
C49         C906   1.476       .  S
N50          C51   1.364   1_545  A
C51          N52   1.371       .  A
C51         C902   1.492       .  S
N52          C53   1.362   1_565  A
C53          N54   1.352       .  A
C53         C719   1.484       .  S
C55          N56   1.370       .  A
C55          N60   1.360       .  A
C55         C894   1.484       .  S
N56          C57   1.364       .  A
C57          N58   1.360       .  A
C57         C722   1.498       .  S
N58          C59   1.367       .  A
C59          N60   1.360       .  A
C59         C897   1.481   1_655  S
Zr61         O62   2.442       .  S
Zr61         O63   2.399       .  S
Zr61         O64   2.363       .  S
Zr61         O67   2.382       .  S
Zr61         O69   2.372       .  S
Zr61         O70   2.378       .  S
Zr61         O71   2.396       .  S
Zr61         O72   2.392       .  S
O62         H118   0.990       .  S
O62         H126   0.990       .  S
O63          C83   1.280       .  A
O64          C85   1.273       .  A
O65         Zr75   2.489       .  S
O65          C84   1.291       .  A
O66         Zr74   2.504       .  S
O66          C85   1.297       .  A
O67          C84   1.269       .  A
O68         Zr76   2.448       .  S
O68          C83   1.284       .  A
O69         Zr74   2.397       .  S
O69         Zr76   2.377       .  S
O70         Zr75   2.399       .  S
O70         Zr76   2.369       .  S
O70         H105   0.966       .  S
O71         Zr74   2.403       .  S
O71         Zr91   2.394       .  S
O71         H108   0.961       .  S
O72         Zr75   2.401       .  S
O72         Zr91   2.390       .  S
Zr73         O98   2.441       .  S
Zr73         O92   2.399       .  S
Zr73        O100   2.378       .  S
Zr73         O88   2.384       .  S
Zr73         O79   2.393       .  S
Zr73         O80   2.404       .  S
Zr73         O82   2.370       .  S
Zr73         O81   2.267       .  S
Zr74         O93   2.435       .  S
Zr74         O86   2.435       .  S
Zr74         O87   2.498       .  S
Zr74         O80   2.417       .  S
Zr74         O81   2.300       .  S
Zr75         O77   2.434       .  S
Zr75         O99   2.437       .  S
Zr75        O101   2.497       .  S
Zr75         O79   2.405       .  S
Zr75         O82   2.385       .  S
Zr76        O102   2.437       .  S
Zr76        O103   2.435       .  S
Zr76         O78   2.437       .  S
Zr76         O79   2.410       .  S
Zr76         O80   2.402       .  S
O77         H114   0.990       .  S
O78         H109   0.990       .  S
O78         H123   0.990       .  S
O80         H106   0.962       .  S
O81         Zr91   2.279       .  S
O82         Zr91   2.377       .  S
O82         H107   0.965       .  S
C83         C881   1.479       .  S
C84         C873   1.488       .  S
C85         C877   1.494       .  S
O86         H122   0.991       .  S
O87          C89   1.290       .  A
O88          C89   1.265       .  A
C89         C885   1.492       .  S
O90         Zr91   2.439       .  S
O90         H119   0.990       .  S
Zr91         O94   2.435       .  S
Zr91         O95   2.442       .  S
Zr91         O96   2.427       .  S
O92          C97   1.281       .  A
O93         H110   0.990       .  S
O93         H125   0.990       .  S
O94         H111   0.990       .  S
O95         H115   0.990       .  S
O95         H124   0.990       .  S
O96          C97   1.280       .  A
C97         C890   1.468       .  S
O98         H117   0.990       .  S
O98         H121   0.989       .  S
O99         H113   0.990       .  S
O99         H120   0.990       .  S
O100        C104   1.276       .  A
O101        C104   1.296       .  A
O102        H112   0.990       .  S
O103        H116   0.990       .  S
C104        C898   1.494       .  S
C127        N128   1.352       .  A
C127        N132   1.360       .  A
C127        C889   1.460       .  S
N128        C129   1.349       .  A
C129        N130   1.361   1_545  A
C129        C718   1.467       .  S
N130        C131   1.368       .  A
C131        N132   1.358   1_565  A
C131        C870   1.478       .  S
Zr133       O134   2.441       .  S
Zr133       O135   2.414       .  S
Zr133       O136   2.381       .  S
Zr133       O139   2.358       .  S
Zr133       O142   2.368       .  S
Zr133       O143   2.404       .  S
Zr133       O144   2.394       .  S
Zr133       O141   2.266       .  S
O134        H190   0.990       .  S
O134        H198   0.989       .  S
O135        C155   1.282       .  A
O136        C157   1.269       .  A
O137       Zr147   2.511       .  S
O137        C156   1.299       .  A
O138       Zr146   2.522       .  S
O138        C157   1.296       .  A
O139        C156   1.272       .  A
O140       Zr148   2.390       .  S
O140        C155   1.273       .  A
O141       Zr146   2.303       .  S
O141       Zr148   2.294       .  S
O142       Zr147   2.386       .  S
O142       Zr148   2.382       .  S
O142        H177   0.964       .  S
O143       Zr146   2.406       .  S
O143       Zr163   2.402       .  S
O143        H180   0.965       .  S
O144       Zr147   2.398       .  S
O144       Zr163   2.403       .  S
Zr145       O170   2.442       .  S
Zr145       O164   2.397       .  S
Zr145       O172   2.368       .  S
Zr145       O160   2.364       .  S
Zr145       O151   2.378       .  S
Zr145       O152   2.388       .  S
Zr145       O153   2.383       .  S
Zr145       O154   2.380       .  S
Zr146       O165   2.437       .  S
Zr146       O158   2.435       .  S
Zr146       O159   2.514       .  S
Zr146       O152   2.408       .  S
Zr146       O153   2.391       .  S
Zr147       O149   2.436       .  S
Zr147       O171   2.434       .  S
Zr147       O173   2.493       .  S
Zr147       O151   2.412       .  S
Zr147       O154   2.393       .  S
Zr148       O174   2.437       .  S
Zr148       O175   2.438       .  S
Zr148       O150   2.437       .  S
Zr148       O151   2.389       .  S
Zr148       O152   2.381       .  S
O149        H186   0.990       .  S
O150        H181   0.991       .  S
O150        H195   0.990       .  S
O152        H178   0.965       .  S
O153       Zr163   2.369       .  S
O154       Zr163   2.363       .  S
O154        H179   0.967       .  S
C155        C857   1.453       .  S
C156        C861   1.497       .  S
C157        C865   1.502       .  S
O158        H194   0.990       .  S
O159        C161   1.298       .  A
O160        C161   1.269       .  A
C161        C869   1.489       .  S
O162       Zr163   2.440       .  S
O162        H191   0.990       .  S
Zr163       O166   2.437       .  S
Zr163       O167   2.440       .  S
Zr163       O168   2.446       .  S
O164        C169   1.276       .  A
O165        H182   0.990       .  S
O165        H197   0.990       .  S
O166        H183   0.991       .  S
O167        H187   0.990       .  S
O167        H196   0.989       .  S
O168        C169   1.288       .  A
C169        C950   1.469       .  S
O170        H189   0.990       .  S
O170        H193   0.990       .  S
O171        H185   0.990       .  S
O171        H192   0.990       .  S
O172        C176   1.276       .  A
O173        C176   1.295       .  A
O174        H184   0.991       .  S
O175        H188   0.990       .  S
C176        C910   1.481       .  S
Zr199       O200   2.442       .  S
Zr199       O201   2.425       .  S
Zr199       O202   2.369       .  S
Zr199       O205   2.369       .  S
Zr199       O208   2.367       .  S
Zr199       O209   2.396       .  S
Zr199       O210   2.395       .  S
Zr199       O207   2.268       .  S
O200        H256   0.991       .  S
O200        H264   0.990       .  S
O201        C221   1.283       .  A
O202        C223   1.273       .  A
O203       Zr213   2.513       .  S
O203        C222   1.299       .  A
O204       Zr212   2.507       .  S
O204        C223   1.297       .  A
O205        C222   1.274       .  A
O206       Zr214   2.436       .  S
O206        C221   1.282       .  A
O207       Zr212   2.310       .  S
O207       Zr214   2.288       .  S
O208       Zr213   2.402       .  S
O208       Zr214   2.372       .  S
O208        H243   0.965       .  S
O209       Zr212   2.405       .  S
O209       Zr229   2.403       .  S
O209        H246   0.963       .  S
O210       Zr213   2.402       .  S
O210       Zr229   2.408       .  S
Zr211       O236   2.442       .  S
Zr211       O230   2.420       .  S
Zr211       O238   2.357       .  S
Zr211       O226   2.363       .  S
Zr211       O217   2.390       .  S
Zr211       O218   2.394       .  S
Zr211       O219   2.369       .  S
Zr211       O220   2.372       .  S
Zr212       O231   2.438       .  S
Zr212       O224   2.434       .  S
Zr212       O225   2.520       .  S
Zr212       O218   2.403       .  S
Zr212       O219   2.395       .  S
Zr213       O215   2.435       .  S
Zr213       O237   2.434       .  S
Zr213       O239   2.513       .  S
Zr213       O217   2.406       .  S
Zr213       O220   2.396       .  S
Zr214       O240   2.437       .  S
Zr214       O241   2.437       .  S
Zr214       O216   2.437       .  S
Zr214       O217   2.400       .  S
Zr214       O218   2.402       .  S
O215        H252   0.990       .  S
O216        H247   0.990       .  S
O216        H261   0.990       .  S
O218        H244   0.967       .  S
O219       Zr229   2.376       .  S
O220       Zr229   2.375       .  S
O220        H245   0.967       .  S
C221        C905   1.484       .  S
C222        C957   1.503       .  S
C223        C893   1.493       .  S
O224        H260   0.989       .  S
O225        C227   1.301       .  A
O226        C227   1.273       .  A
C227        C845   1.504       .  S
O228       Zr229   2.438       .  S
O228        H257   0.990       .  S
Zr229       O232   2.435       .  S
Zr229       O233   2.439       .  S
Zr229       O234   2.456       .  S
O230        C235   1.283       .  A
O231        H248   0.990       .  S
O231        H263   0.990       .  S
O232        H249   0.990       .  S
O233        H253   0.990       .  S
O233        H262   0.990       .  S
O234        C235   1.286       .  A
C235        C849   1.491       .  S
O236        H255   0.990       .  S
O236        H259   0.990       .  S
O237        H251   0.990       .  S
O237        H258   0.990       .  S
O238        C242   1.272       .  A
O239        C242   1.299       .  A
O240        H250   0.990       .  S
O241        H254   0.990       .  S
C242        C853   1.493       .  S
Zr265       O266   2.440       .  S
Zr265       O267   2.415       .  S
Zr265       O268   2.384       .  S
Zr265       O271   2.367       .  S
Zr265       O274   2.374       .  S
Zr265       O275   2.388       .  S
Zr265       O276   2.393       .  S
Zr265       O273   2.267       .  S
O266        H322   0.991       .  S
O266        H330   0.990       .  S
O267        C287   1.282       .  A
O268        C289   1.277       .  A
O269       Zr279   2.522       .  S
O269        C288   1.301       .  A
O270       Zr278   2.487       .  S
O270        C289   1.292       .  A
O271        C288   1.273       .  A
O272       Zr280   2.430       .  S
O272        C287   1.281       .  A
O273       Zr278   2.305       .  S
O273       Zr280   2.289       .  S
O274       Zr279   2.403       .  S
O274       Zr280   2.375       .  S
O274        H309   0.967       .  S
O275       Zr278   2.401       .  S
O275       Zr295   2.400       .  S
O275        H312   0.967       .  S
O276       Zr279   2.405       .  S
O276       Zr295   2.400       .  S
Zr277       O302   2.443       .  S
Zr277       O296   2.411       .  S
Zr277       O304   2.363       .  S
Zr277       O292   2.357       .  S
Zr277       O283   2.389       .  S
Zr277       O284   2.390       .  S
Zr277       O285   2.368       .  S
Zr277       O286   2.368       .  S
Zr278       O297   2.437       .  S
Zr278       O290   2.434       .  S
Zr278       O291   2.493       .  S
Zr278       O284   2.401       .  S
Zr278       O285   2.391       .  S
Zr279       O281   2.435       .  S
Zr279       O303   2.434       .  S
Zr279       O305   2.529       .  S
Zr279       O283   2.406       .  S
Zr279       O286   2.395       .  S
Zr280       O306   2.437       .  S
Zr280       O307   2.438       .  S
Zr280       O282   2.437       .  S
Zr280       O283   2.401       .  S
Zr280       O284   2.393       .  S
O281        H318   0.990       .  S
O282        H313   0.990       .  S
O282        H327   0.989       .  S
O284        H310   0.969       .  S
O285       Zr295   2.375       .  S
O286       Zr295   2.378       .  S
O286        H311   0.964       .  S
C287        C833   1.476       .  S
C288        C837   1.506       .  S
C289        C841   1.492       .  S
O290        H326   0.989       .  S
O291        C293   1.295       .  A
O292        C293   1.272       .  A
C293        C913   1.489       .  S
O294       Zr295   2.438       .  S
O294        H323   0.990       .  S
Zr295       O298   2.437       .  S
Zr295       O299   2.440       .  S
Zr295       O300   2.438       .  S
O296        C301   1.282       .  A
O297        H314   0.990       .  S
O297        H329   0.990       .  S
O298        H315   0.990       .  S
O299        H319   0.990       .  S
O299        H328   0.990       .  S
O300        C301   1.283       .  A
C301        C965   1.478       .  S
O302        H321   0.990       .  S
O302        H325   0.990       .  S
O303        H317   0.990       .  S
O303        H324   0.990       .  S
O304        C308   1.273       .  A
O305        C308   1.302       .  A
O306        H316   0.990       .  S
O307        H320   0.990       .  S
C308        C901   1.503       .  S
C331        N332   1.355       .  A
C331        N336   1.371       .  A
C331        C886   1.484       .  S
N332        C333   1.355   1_554  A
C333        N334   1.368       .  A
C333        C829   1.478       .  S
N334        C335   1.363   1_556  A
C335        N336   1.367       .  A
C335        C715   1.502       .  S
Zr337       O338   2.438       .  S
Zr337       O339   2.391       .  S
Zr337       O340   2.387       .  S
Zr337       O343   2.360       .  S
Zr337       O346   2.372       .  S
Zr337       O347   2.391       .  S
Zr337       O348   2.387       .  S
Zr337       O345   2.268       .  S
O338        H394   0.990       .  S
O338        H402   0.989       .  S
O339        C359   1.279       .  A
O340        C361   1.270       .  A
O341       Zr351   2.506       .  S
O341        C360   1.298       .  A
O342       Zr350   2.503       .  S
O342        C361   1.293       .  A
O343        C360   1.273       .  A
O344       Zr352   2.421       .  S
O344        C359   1.279       .  A
O345       Zr350   2.303       .  S
O345       Zr352   2.283       .  S
O346       Zr351   2.388       .  S
O346       Zr352   2.377       .  S
O346        H381   0.963       .  S
O347       Zr350   2.415       .  S
O347       Zr367   2.385       .  S
O347        H384   0.965       .  S
O348       Zr351   2.398       .  S
O348       Zr367   2.396       .  S
Zr349       O374   2.444       .  S
Zr349       O368   2.398       .  S
Zr349       O376   2.382       .  S
Zr349       O364   2.360       .  S
Zr349       O355   2.391       .  S
Zr349       O356   2.393       .  S
Zr349       O357   2.370       .  S
Zr349       O358   2.380       .  S
Zr350       O369   2.435       .  S
Zr350       O362   2.434       .  S
Zr350       O363   2.523       .  S
Zr350       O356   2.399       .  S
Zr350       O357   2.396       .  S
Zr351       O353   2.435       .  S
Zr351       O375   2.437       .  S
Zr351       O377   2.501       .  S
Zr351       O355   2.398       .  S
Zr351       O358   2.399       .  S
Zr352       O378   2.436       .  S
Zr352       O379   2.436       .  S
Zr352       O354   2.435       .  S
Zr352       O355   2.390       .  S
Zr352       O356   2.389       .  S
O353        H390   0.990       .  S
O354        H385   0.990       .  S
O354        H399   0.990       .  S
O356        H382   0.963       .  S
O357       Zr367   2.383       .  S
O358       Zr367   2.378       .  S
O358        H383   0.964       .  S
C359        C922   1.462       .  S
C360        C830   1.491       .  S
C361        C938   1.495       .  S
O362        H398   0.990       .  S
O363        C365   1.302       .  A
O364        C365   1.272       .  A
C365        C818   1.498       .  S
O366       Zr367   2.436       .  S
O366        H395   0.990       .  S
Zr367       O370   2.435       .  S
Zr367       O371   2.439       .  S
Zr367       O372   2.424       .  S
O368        C373   1.280       .  A
O369        H386   0.990       .  S
O369        H401   0.990       .  S
O370        H387   0.990       .  S
O371        H391   0.991       .  S
O371        H400   0.990       .  S
O372        C373   1.279       .  A
C373        C821   1.466       .  S
O374        H393   0.989       .  S
O374        H397   0.990       .  S
O375        H389   0.990       .  S
O375        H396   0.990       .  S
O376        C380   1.270       .  A
O377        C380   1.294       .  A
O378        H388   0.990       .  S
O379        H392   0.990       .  S
C380        C825   1.493       .  S
Zr403       O404   2.438       .  S
Zr403       O405   2.395       .  S
Zr403       O406   2.367       .  S
Zr403       O409   2.377       .  S
Zr403       O411   2.370       .  S
Zr403       O412   2.370       .  S
Zr403       O413   2.386       .  S
Zr403       O414   2.379       .  S
O404        H460   0.991       .  S
O404        H468   0.990       .  S
O405        C425   1.276       .  A
O406        C427   1.275       .  A
O407       Zr417   2.463       .  S
O407        C426   1.288       .  A
O408       Zr416   2.470       .  S
O408        C427   1.291       .  A
O409        C426   1.278       .  A
O410       Zr418   2.461       .  S
O410        C425   1.290       .  A
O411       Zr416   2.396       .  S
O411       Zr418   2.362       .  S
O412       Zr417   2.394       .  S
O412       Zr418   2.364       .  S
O412        H447   0.965       .  S
O413       Zr416   2.414       .  S
O413       Zr433   2.384       .  S
O413        H450   0.962       .  S
O414       Zr417   2.411       .  S
O414       Zr433   2.395       .  S
Zr415       O440   2.441       .  S
Zr415       O434   2.412       .  S
Zr415       O442   2.348       .  S
Zr415       O430   2.345       .  S
Zr415       O421   2.382       .  S
Zr415       O422   2.383       .  S
Zr415       O423   2.365       .  S
Zr415       O424   2.369       .  S
Zr416       O435   2.436       .  S
Zr416       O428   2.435       .  S
Zr416       O429   2.510       .  S
Zr416       O422   2.394       .  S
Zr416       O423   2.382       .  S
Zr417       O419   2.434       .  S
Zr417       O441   2.435       .  S
Zr417       O443   2.485       .  S
Zr417       O421   2.396       .  S
Zr417       O424   2.384       .  S
Zr418       O444   2.435       .  S
Zr418       O445   2.436       .  S
Zr418       O420   2.434       .  S
Zr418       O421   2.407       .  S
Zr418       O422   2.403       .  S
O419        H456   0.990       .  S
O420        H451   0.990       .  S
O420        H465   0.990       .  S
O422        H448   0.971       .  S
O423       Zr433   2.380       .  S
O424       Zr433   2.377       .  S
O424        H449   0.966       .  S
C425        C917   1.476       .  S
C426        C930   1.469       .  S
C427        C953   1.475       .  S
O428        H464   0.990       .  S
O429        C431   1.298       .  A
O430        C431   1.270       .  A
C431        C809   1.487       .  S
O432       Zr433   2.436       .  S
O432        H461   0.990       .  S
Zr433       O436   2.435       .  S
Zr433       O437   2.438       .  S
Zr433       O438   2.407       .  S
O434        C439   1.282       .  A
O435        H452   0.990       .  S
O435        H467   0.990       .  S
O436        H453   0.990       .  S
O437        H457   0.990       .  S
O437        H466   0.990       .  S
O438        C439   1.277       .  A
C439        C813   1.462       .  S
O440        H459   0.990       .  S
O440        H463   0.990       .  S
O441        H455   0.990       .  S
O441        H462   0.990       .  S
O442        C446   1.271       .  A
O443        C446   1.293       .  A
O444        H454   0.990       .  S
O445        H458   0.990       .  S
C446        C806   1.477       .  S
Zr469       O470   2.440       .  S
Zr469       O471   2.396       .  S
Zr469       O472   2.384       .  S
Zr469       O475   2.370       .  S
Zr469       O478   2.375       .  S
Zr469       O479   2.393       .  S
Zr469       O480   2.387       .  S
Zr469       O477   2.266       .  S
O470        H526   0.990       .  S
O470        H534   0.990       .  S
O471        C491   1.279       .  A
O472        C493   1.273       .  A
O473       Zr483   2.505       .  S
O473        C492   1.298       .  A
O474       Zr482   2.504       .  S
O474        C493   1.295       .  A
O475        C492   1.275       .  A
O476       Zr484   2.429       .  S
O476        C491   1.280       .  A
O477       Zr482   2.301       .  S
O477       Zr484   2.283       .  S
O478       Zr483   2.401       .  S
O478       Zr484   2.377       .  S
O478        H513   0.963       .  S
O479       Zr482   2.409       .  S
O479       Zr499   2.400       .  S
O479        H516   0.967       .  S
O480       Zr483   2.403       .  S
O480       Zr499   2.400       .  S
Zr481       O506   2.442       .  S
Zr481       O500   2.404       .  S
Zr481       O508   2.375       .  S
Zr481       O496   2.359       .  S
Zr481       O487   2.391       .  S
Zr481       O488   2.392       .  S
Zr481       O489   2.372       .  S
Zr481       O490   2.368       .  S
Zr482       O501   2.437       .  S
Zr482       O494   2.434       .  S
Zr482       O495   2.509       .  S
Zr482       O488   2.401       .  S
Zr482       O489   2.399       .  S
Zr483       O485   2.435       .  S
Zr483       O507   2.436       .  S
Zr483       O509   2.519       .  S
Zr483       O487   2.401       .  S
Zr483       O490   2.392       .  S
Zr484       O510   2.436       .  S
Zr484       O511   2.437       .  S
Zr484       O486   2.437       .  S
Zr484       O487   2.405       .  S
Zr484       O488   2.387       .  S
O485        H522   0.990       .  S
O486        H517   0.990       .  S
O486        H531   0.990       .  S
O488        H514   0.961       .  S
O489       Zr499   2.382       .  S
O490       Zr499   2.379       .  S
O490        H515   0.965       .  S
C491        C946   1.472       .  S
C492        C933   1.497       .  S
C493        C962   1.496       .  S
O494        H530   0.990       .  S
O495        C497   1.298       .  A
O496        C497   1.273       .  A
C497        C797   1.494       .  S
O498       Zr499   2.436       .  S
O498        H527   0.990       .  S
Zr499       O502   2.435       .  S
Zr499       O503   2.440       .  S
Zr499       O504   2.436       .  S
O500        C505   1.281       .  A
O501        H518   0.991       .  S
O501        H533   0.990       .  S
O502        H519   0.990       .  S
O503        H523   0.990       .  S
O503        H532   0.990       .  S
O504        C505   1.281       .  A
C505        C802   1.480       .  S
O506        H525   0.990       .  S
O506        H529   0.990       .  S
O507        H521   0.990       .  S
O507        H528   0.990       .  S
O508        C512   1.272       .  A
O509        C512   1.300       .  A
O510        H520   0.991       .  S
O511        H524   0.989       .  S
C512        C793   1.501       .  S
Zr535       O536   2.439       .  S
Zr535       O537   2.402       .  S
Zr535       O538   2.364       .  S
Zr535       O541   2.358       .  S
Zr535       O543   2.367       .  S
Zr535       O544   2.370       .  S
Zr535       O545   2.389       .  S
Zr535       O546   2.383       .  S
O536        H592   0.991       .  S
O536        H600   0.990       .  S
O537        C557   1.279       .  A
O538        C559   1.273       .  A
O539       Zr549   2.513       .  S
O539        C558   1.299       .  A
O540       Zr548   2.493       .  S
O540        C559   1.295       .  A
O541        C558   1.272       .  A
O542       Zr550   2.421       .  S
O542        C557   1.279       .  A
O543       Zr548   2.398       .  S
O543       Zr550   2.375       .  S
O544       Zr549   2.390       .  S
O544       Zr550   2.373       .  S
O544        H579   0.966       .  S
O545       Zr548   2.411       .  S
O545       Zr565   2.399       .  S
O545        H582   0.967       .  S
O546       Zr549   2.405       .  S
O546       Zr565   2.400       .  S
Zr547       O572   2.442       .  S
Zr547       O566   2.402       .  S
Zr547       O574   2.360       .  S
Zr547       O562   2.372       .  S
Zr547       O553   2.384       .  S
Zr547       O554   2.384       .  S
Zr547       O555   2.364       .  S
Zr547       O556   2.371       .  S
Zr548       O567   2.435       .  S
Zr548       O560   2.436       .  S
Zr548       O561   2.497       .  S
Zr548       O554   2.404       .  S
Zr548       O555   2.394       .  S
Zr549       O551   2.434       .  S
Zr549       O573   2.436       .  S
Zr549       O575   2.501       .  S
Zr549       O553   2.402       .  S
Zr549       O556   2.402       .  S
Zr550       O576   2.436       .  S
Zr550       O577   2.435       .  S
Zr550       O552   2.436       .  S
Zr550       O553   2.397       .  S
Zr550       O554   2.394       .  S
O551        H588   0.990       .  S
O552        H583   0.990       .  S
O552        H597   0.990       .  S
O554        H580   0.969       .  S
O555       Zr565   2.379       .  S
O556       Zr565   2.382       .  S
O556        H581   0.962       .  S
C557        C926   1.466       .  S
C558        C941   1.494       .  S
C559        C969   1.485       .  S
O560        H596   0.990       .  S
O561        C563   1.296       .  A
O562        C563   1.275       .  A
C563        C785   1.496       .  S
O564       Zr565   2.441       .  S
O564        H593   0.990       .  S
Zr565       O568   2.439       .  S
Zr565       O569   2.437       .  S
Zr565       O570   2.435       .  S
O566        C571   1.280       .  A
O567        H584   0.990       .  S
O567        H599   0.990       .  S
O568        H585   0.991       .  S
O569        H589   0.990       .  S
O569        H598   0.990       .  S
O570        C571   1.282       .  A
C571        C789   1.475       .  S
O572        H591   0.990       .  S
O572        H595   0.990       .  S
O573        H587   0.990       .  S
O573        H594   0.990       .  S
O574        C578   1.273       .  A
O575        C578   1.296       .  A
O576        H586   0.990       .  S
O577        H590   0.989       .  S
C578        C781   1.489       .  S
C601        N602   1.356       .  A
C601        N606   1.359       .  A
C601        C790   1.467       .  S
N602        C603   1.353       .  A
C603        N604   1.364       .  A
C603        C738   1.479       .  S
N604        C605   1.370       .  A
C605        N606   1.359       .  A
C605        C810   1.483       .  S
C607        N608   1.357       .  A
C607        N612   1.354       .  A
C607        C822   1.458       .  S
N608        C609   1.358       .  A
C609        N610   1.350       .  A
C609        C814   1.460       .  S
N610        C611   1.351       .  A
C611        N612   1.350       .  A
C611        C740   1.439       .  S
C613        N614   1.371       .  A
C613        N618   1.358       .  A
C613        C798   1.477       .  S
N614        C615   1.361       .  A
C615        N616   1.364       .  A
C615        C739   1.498       .  S
N616        C617   1.367       .  A
C617        N618   1.357       .  A
C617        C826   1.482       .  S
C619        N620   1.364       .  A
C619        N624   1.358       .  A
C619        C801   1.466       .  S
N620        C621   1.362       .  A
C621        N622   1.365       .  A
C621        C786   1.479       .  S
N622        C623   1.357       .  A
C623        N624   1.350       .  A
C623        C741   1.471       .  S
C625        N626   1.369       .  A
C625        N630   1.360       .  A
C625        C854   1.481       .  S
N626        C627   1.361       .  A
C627        N628   1.358       .  A
C627        C769   1.491       .  S
N628        C629   1.366       .  A
C629        N630   1.359       .  A
C629        C878   1.476       .  S
C631        N632   1.362       .  A
C631        N636   1.367       .  A
C631        C850   1.483       .  S
N632        C633   1.356       .  A
C633        N634   1.354       .  A
C633        C776   1.478       .  S
N634        C635   1.363       .  A
C635        N636   1.366       .  A
C635        C842   1.480       .  S
C637        N638   1.371       .  A
C637        N642   1.363       .  A
C637        C838   1.488       .  S
N638        C639   1.361       .  A
C639        N640   1.367       .  A
C639        C770   1.512       .  S
N640        C641   1.373       .  A
C641        N642   1.364       .  A
C641        C866   1.494       .  S
C643        N644   1.360       .  A
C643        N648   1.363       .  A
C643        C882   1.469       .  S
N644        C645   1.353       .  A
C645        N646   1.362       .  A
C645        C775   1.482       .  S
N646        C647   1.369       .  A
C647        N648   1.360       .  A
C647        C862   1.483       .  S
C649        N650   1.356       .  A
C649        N654   1.363       .  A
C649        C834   1.470       .  S
N650        C651   1.352       .  A
C651        N652   1.359       .  A
C651        C773   1.469       .  S
N652        C653   1.365       .  A
C653        N654   1.360       .  A
C653        C782   1.480       .  S
C655        N656   1.370       .  A
C655        N660   1.362       .  A
C655        C846   1.486       .  S
N656        C657   1.360       .  A
C657        N658   1.365       .  A
C657        C772   1.507       .  S
N658        C659   1.372       .  A
C659        N660   1.363       .  A
C659        C794   1.491       .  S
C661        N662   1.347       .  A
C661        N666   1.355       .  A
C661        C858   1.450       .  S
N662        C663   1.347       .  A
C663        N664   1.358       .  A
C663        C774   1.449       .  S
N664        C665   1.363       .  A
C665        N666   1.352       .  A
C665        C805   1.465       .  S
C667        N668   1.365       .  A
C667        N672   1.357       .  A
C667        C874   1.473       .  S
N668        C669   1.359       .  A
C669        N670   1.364       .  A
C669        C771   1.495       .  S
N670        C671   1.372       .  A
C671        N672   1.357       .  A
C671        C817   1.482       .  S
O673       Zr709   2.471   1_565  S
O673        C684   1.298       .  A
O674       Zr708   2.426   1_565  S
O674        C685   1.288       .  A
O675       Zr681   2.442       .  S
O675        C686   1.291       .  A
O676       Zr681   2.419   1_554  S
O676        C687   1.287       .  A
O677       Zr711   2.504   1_565  S
O677        C687   1.304       .  A
O678       Zr710   2.421   1_565  S
O678        C686   1.286       .  A
O679       Zr681   2.466   1_455  S
O679        C685   1.296   1_556  A
O680       Zr681   2.436       .  S
O680        C684   1.290       .  A
Zr681       O682   2.343   1_556  S
Zr681       O683   2.340       .  S
Zr681       O691   2.357   1_556  S
Zr681       O689   2.328       .  S
O682       Zr708   2.343   1_665  S
O682       Zr711   2.344   1_565  S
O683       Zr709   2.340   1_565  S
O683       Zr710   2.338   1_565  S
H688        O689   0.964   1_455  S
O689       Zr708   2.341   1_666  S
O689       Zr710   2.335   1_565  S
H690        O691   0.967       .  S
O691       Zr709   2.353   1_564  S
O691       Zr711   2.343   1_565  S
O692       Zr708   2.439       .  S
O692        C715   1.291       .  A
O693       Zr709   2.459       .  S
O693        C716   1.295       .  A
O694       Zr710   2.445   1_455  S
O694        C717   1.291       .  A
O695       Zr711   2.466   1_455  S
O695        C718   1.296       .  A
O696       Zr711   2.475       .  S
O696        C719   1.298       .  A
O697       Zr710   2.442       .  S
O697        C720   1.291       .  A
O698       Zr712   2.534   1_556  S
O698        C721   1.311       .  A
O699       Zr712   2.515       .  S
O699        C722   1.308       .  A
O700       Zr710   2.416       .  S
O700        C721   1.287       .  A
O701       Zr711   2.455       .  S
O701        C722   1.295       .  A
O702       Zr708   2.444   1_556  S
O702        C717   1.291       .  A
O703       Zr709   2.462       .  S
O703        C720   1.295       .  A
O704       Zr709   2.454   1_554  S
O704        C719   1.293       .  A
O705       Zr708   2.427       .  S
O705        C718   1.289       .  A
O706       Zr712   2.525   1_455  S
O706        C715   1.309       .  A
O707       Zr712   2.519       .  S
O707        C716   1.308   1_554  A
Zr708       O714   2.345   1_454  S
Zr708       O726   2.344   1_455  S
Zr709       O713   2.356   1_556  S
Zr709       O724   2.364       .  S
Zr710       O714   2.347       .  S
Zr710       O724   2.357       .  S
Zr711       O713   2.362       .  S
Zr711       O726   2.371       .  S
Zr712       O713   2.375       .  S
Zr712       O714   2.359   1_554  S
Zr712       O726   2.371       .  S
Zr712       O724   2.370   1_554  S
H723        O724   0.965       .  S
H725        O726   0.965       .  S
O727       Zr763   2.462       .  S
O727        C738   1.296       .  A
O728       Zr762   2.539       .  S
O728        C739   1.311       .  A
O729       Zr735   2.415       .  S
O729        C740   1.286       .  A
O730       Zr735   2.435       .  S
O730        C741   1.289       .  A
O731       Zr765   2.467       .  S
O731        C741   1.296       .  A
O732       Zr764   2.415       .  S
O732        C740   1.285       .  A
O733       Zr735   2.417       .  S
O733        C739   1.287       .  A
O734       Zr735   2.450       .  S
O734        C738   1.292       .  A
Zr735       O736   2.346       .  S
Zr735       O737   2.325       .  S
Zr735       O745   2.335       .  S
Zr735       O743   2.352       .  S
O736       Zr762   2.364       .  S
O736       Zr765   2.352       .  S
O737       Zr763   2.325       .  S
O737       Zr764   2.340       .  S
H742        O743   0.968       .  S
O743       Zr762   2.349       .  S
O743       Zr764   2.342       .  S
H744        O745   0.966       .  S
O745       Zr763   2.347       .  S
O745       Zr765   2.347       .  S
O746       Zr762   2.512       .  S
O746        C769   1.308       .  A
O747       Zr763   2.455       .  S
O747        C770   1.294       .  A
O748       Zr764   2.426       .  S
O748        C771   1.288       .  A
O749       Zr765   2.465       .  S
O749        C772   1.296       .  A
O750       Zr765   2.468       .  S
O750        C773   1.298       .  A
O751       Zr764   2.399       .  S
O751        C774   1.283       .  A
O752       Zr766   2.476       .  S
O752        C775   1.298       .  A
O753       Zr766   2.471       .  S
O753        C776   1.298       .  A
O754       Zr764   2.449       .  S
O754        C775   1.292       .  A
O755       Zr765   2.450       .  S
O755        C776   1.293       .  A
O756       Zr762   2.522       .  S
O756        C771   1.307       .  A
O757       Zr763   2.456       .  S
O757        C774   1.294       .  A
O758       Zr763   2.430       .  S
O758        C773   1.290       .  A
O759       Zr762   2.513       .  S
O759        C772   1.307       .  A
O760       Zr766   2.445       .  S
O760        C769   1.294       .  A
O761       Zr766   2.530       .  S
O761        C770   1.310       .  A
Zr762       O768   2.378       .  S
Zr762       O780   2.379       .  S
Zr763       O767   2.364       .  S
Zr763       O778   2.349       .  S
Zr764       O768   2.329       .  S
Zr764       O778   2.341       .  S
Zr765       O767   2.360       .  S
Zr765       O780   2.355       .  S
Zr766       O767   2.345       .  S
Zr766       O768   2.376       .  S
Zr766       O780   2.380       .  S
Zr766       O778   2.342       .  S
H777        O778   0.965       .  S
H779        O780   0.965       .  S
C781        C782   1.358       .  D
C781        H783   1.086       .  S
C782        H784   1.088       .  S
C785        C786   1.360       .  D
C785        H787   1.086       .  S
C786        H788   1.087       .  S
C789        C790   1.345       .  D
C789        H791   1.086       .  S
C790        H792   1.087       .  S
C793        C794   1.365       .  D
C793        H795   1.086       .  S
C794        H796   1.087       .  S
C797        C798   1.365       .  D
C797        H799   1.086       .  S
C798        H800   1.086       .  S
C801        C802   1.345       .  D
C801        H803   1.087       .  S
C802        H804   1.086       .  S
C805        C806   1.357       .  D
C805        H807   1.088       .  S
C806        H808   1.086       .  S
C809        C810   1.362       .  D
C809        H811   1.086       .  S
C810        H812   1.088       .  S
C813        C814   1.337       .  D
C813        H815   1.087       .  S
C814        H816   1.087       .  S
C817        C818   1.367       .  D
C817        H819   1.086       .  S
C818        H820   1.086       .  S
C821        C822   1.341       .  D
C821        H823   1.087       .  S
C822        H824   1.088       .  S
C825        C826   1.361       .  D
C825        H827   1.086       .  S
C826        H828   1.086       .  S
C829        C830   1.363       .  D
C829        H831   1.086       .  S
C830        H832   1.086       .  S
C833        C834   1.343       .  D
C833        H835   1.086       .  S
C834        H836   1.087       .  S
C837        C838   1.368       .  D
C837        H839   1.085       .  S
C838        H840   1.086       .  S
C841        C842   1.354       .  D
C841        H843   1.086       .  S
C842        H844   1.088       .  S
C845        C846   1.367       .  D
C845        H847   1.086       .  S
C846        H848   1.086       .  S
C849        C850   1.350       .  D
C849        H851   1.086       .  S
C850        H852   1.087       .  S
C853        C854   1.363       .  D
C853        H855   1.086       .  S
C854        H856   1.088       .  S
C857        C858   1.333       .  D
C857        H859   1.087       .  S
C858        H860   1.088       .  S
C861        C862   1.365       .  D
C861        H863   1.086       .  S
C862        H864   1.087       .  S
C865        C866   1.365       .  D
C865        H867   1.086       .  S
C866        H868   1.087       .  S
C869        C870   1.362       .  D
C869        H871   1.086       .  S
C870        H872   1.087       .  S
C873        C874   1.357       .  D
C873        H875   1.086       .  S
C874        H876   1.086       .  S
C877        C878   1.362       .  D
C877        H879   1.086       .  S
C878        H880   1.086       .  S
C881        C882   1.346       .  D
C881        H883   1.086       .  S
C882        H884   1.088       .  S
C885        C886   1.364       .  D
C885        H887   1.086       .  S
C886        H888   1.086       .  S
C889        C890   1.340       .  D
C889        H891   1.087       .  S
C890        H892   1.086       .  S
C893        C894   1.361       .  D
C893        H895   1.086       .  S
C894        H896   1.087       .  S
C897        C898   1.360       .  D
C897        H899   1.086       .  S
C898        H900   1.086   1_455  S
C901        C902   1.366       .  D
C901        H903   1.085       .  S
C902        H904   1.088       .  S
C905        C906   1.344       .  D
C905        H907   1.086       .  S
C906        H908   1.087       .  S
C909        C910   1.356       .  D
C909        H911   1.088       .  S
C910        H912   1.086   1_455  S
C913        C914   1.360       .  D
C913        H915   1.086       .  S
C914        H916   1.087       .  S
C917        C918   1.337       .  D
C917        H919   1.087       .  S
C918        H920   1.087       .  S
C921        C922   1.340       .  D
C921        H923   1.088       .  S
C922        H924   1.086       .  S
C925        C926   1.341       .  D
C925        H927   1.087       .  S
C926        H928   1.087       .  S
C929        C930   1.350       .  D
C929        H931   1.089       .  S
C930        H932   1.086   1_455  S
C933        C934   1.362       .  D
C933        H935   1.086       .  S
C934        H936   1.086       .  S
C937        C938   1.361       .  D
C937        H939   1.087       .  S
C938        H940   1.086       .  S
C941        C942   1.364       .  D
C941        H943   1.086       .  S
C942        H944   1.087       .  S
C945        C946   1.342       .  D
C945        H947   1.087       .  S
C946        H948   1.086       .  S
C949        C950   1.337       .  D
C949        H951   1.087       .  S
C950        H952   1.087       .  S
C953        C954   1.354       .  D
C953        H955   1.086       .  S
C954        H956   1.088       .  S
C957        C958   1.366       .  D
C957        H959   1.086       .  S
C958        H960   1.086       .  S
C961        C962   1.362       .  D
C961        H963   1.087       .  S
C962        H964   1.086       .  S
C965        C966   1.345       .  D
C965        H967   1.086       .  S
C966        H968   1.087       .  S
C969        C970   1.358       .  D
C969        H971   1.086       .  S
C970        H972   1.088       .  S
