geometry optimzed in LAMMPS
_audit_creation_date              2020-12-01 
_audit_creation_method            'lammps2cif' 
_symmetry_space_group_name_H-M    'P1' 
_symmetry_Int_Tables_number       1 
_symmetry_cell_setting            triclinic 
loop_ 
_symmetry_equiv_pos_as_xyz 
  x,y,z 
_cell_length_a                    52.34851239 
_cell_length_b                    52.39718472716543 
_cell_length_c                    52.32570644483887 
_cell_angle_alpha                 90.04874573957196 
_cell_angle_beta                  89.96611451058887 
_cell_angle_gamma                 90.02879517050596 
loop_ 
_atom_site_label 
_atom_site_type_symbol 
_atom_site_fract_x 
_atom_site_fract_y 
_atom_site_fract_z 
_atom_site_charge 
O1          O  0.74923566  0.46956877  0.79291720    -0.74400
O2          O  0.78268314  0.52554950  0.75969978    -0.74400
O3          O  0.74531600  0.52098812  0.79516719    -0.74500
O4          O  0.78680841  0.47409951  0.75727727    -0.74600
O5          O  0.75748142  0.47325205  0.72647840    -0.74500
O6          O  0.71606400  0.52003187  0.76435193    -0.74500
O7          O  0.75345401  0.52449092  0.72876044    -0.74400
O8          O  0.72013993  0.46860704  0.76187726    -0.74500
Ni9        Ni  0.76705905  0.49755634  0.77738004     1.25400
Ni10       Ni  0.73574435  0.49656043  0.74429482     1.25400
C11         C  0.72907691  0.45992380  0.78289619     0.87800
C12         C  0.77362980  0.53416659  0.73866237     0.87700
C13         C  0.72380509  0.52827610  0.78608388     0.87700
C14         C  0.77909978  0.46612699  0.73544204     0.87900
O15         O  0.46151554  0.82611189  0.79257376    -0.74400
O16         O  0.41122773  0.86174591  0.75304014    -0.74400
O17         O  0.40985393  0.82717612  0.79175430    -0.74500
O18         O  0.46283157  0.86062012  0.75397184    -0.74600
O19         O  0.46275809  0.82873566  0.72577105    -0.74500
O20         O  0.40940617  0.79567910  0.76326792    -0.74500
O21         O  0.41101877  0.83002076  0.72465720    -0.74400
O22         O  0.46093678  0.79430671  0.76436214    -0.74500
Ni23       Ni  0.43635166  0.84504928  0.77384166     1.25400
Ni24       Ni  0.43603123  0.81108513  0.74349234     1.25400
C25         C  0.46933656  0.80414103  0.78513424     0.87800
C26         C  0.40292294  0.85182461  0.73224009     0.87700
C27         C  0.40094571  0.80577777  0.78392434     0.87700
C28         C  0.47158807  0.85015356  0.73364177     0.87900
O29         O  0.76476166  0.79147855  0.45990069    -0.74400
O30         O  0.73081610  0.83003759  0.40809199    -0.74400
O31         O  0.76492386  0.79126436  0.40829096    -0.74500
O32         O  0.73066638  0.83008902  0.45978664    -0.74600
O33         O  0.76274531  0.85797262  0.46031216    -0.74500
O34         O  0.79656342  0.81974550  0.40779936    -0.74500
O35         O  0.76242764  0.85851748  0.40858487    -0.74400
O36         O  0.79696369  0.81920607  0.45958285    -0.74500
Ni37       Ni  0.74665740  0.80973810  0.43400283     1.25400
Ni38       Ni  0.78082209  0.83987190  0.43406962     1.25400
C39         C  0.78654889  0.79885755  0.46826354     0.87800
C40         C  0.74098982  0.85065992  0.39977783     0.87700
C41         C  0.78634328  0.79912921  0.39946331     0.87700
C42         C  0.74109408  0.85031024  0.46879029     0.87900
C43         C  0.27907905  0.94142925  0.25181016     0.03100
C44         C  0.28027467  0.96824227  0.25221193    -0.13000
C45         C  0.26106563  0.98295522  0.26418849     0.00600
C46         C  0.24121477  0.96980443  0.27687136    -0.11500
C47         C  0.24113980  0.94311483  0.27851049     0.03100
C48         C  0.25954978  0.92903311  0.26528134    -0.11000
H49         H  0.29666195  0.97730157  0.24355397     0.08700
H50         H  0.22571288  0.97990472  0.28598197     0.06300
H51         H  0.25897067  0.90836785  0.26599282     0.06100
C52         C  0.27880298  0.05181583  0.24668644     0.03100
C53         C  0.27676581  0.02511614  0.24582617    -0.13000
C54         C  0.26216783  0.01168775  0.26417751     0.00600
C55         C  0.24884222  0.02610841  0.28274676    -0.11500
C56         C  0.24960828  0.05287126  0.28272446     0.03100
C57         C  0.26479875  0.06554392  0.26481034    -0.11000
H58         H  0.28685285  0.01515177  0.23081968     0.08700
H59         H  0.23768066  0.01690982  0.29742950     0.06300
H60         H  0.26582118  0.08621279  0.26503038     0.06100
O61         O  0.40717900  0.14224915  0.11122225    -0.74400
O62         O  0.45671022  0.18340441  0.07593288    -0.74400
O63         O  0.45893099  0.14420141  0.10984225    -0.74500
O64         O  0.40513920  0.18124389  0.07694513    -0.74600
O65         O  0.40497436  0.20938816  0.10880443    -0.74500
O66         O  0.45850625  0.17196300  0.14202009    -0.74500
O67         O  0.45663583  0.21099456  0.10839369    -0.74400
O68         O  0.40674532  0.17067904  0.14291806    -0.74500
Ni69       Ni  0.43199273  0.16174997  0.09234162     1.25400
Ni70       Ni  0.43168321  0.19171121  0.12667123     1.25400
C71         C  0.39877205  0.14982818  0.13297359     0.87800
C72         C  0.46477412  0.20402941  0.08642351     0.87700
C73         C  0.46773351  0.15195224  0.13134446     0.87700
C74         C  0.39631464  0.20161665  0.08724603     0.87900
C75         C  0.60451854  0.94403469  0.24023780     0.03100
C76         C  0.60243709  0.97067406  0.23872447    -0.13000
C77         C  0.61990201  0.98671745  0.25151011     0.00600
C78         C  0.63918535  0.97512251  0.26636285    -0.11500
C79         C  0.64008509  0.94861284  0.26952646     0.03100
C80         C  0.62315013  0.93310116  0.25589708    -0.11000
H81         H  0.58685234  0.97852353  0.22772606     0.08700
H82         H  0.65367467  0.98634081  0.27583820     0.06300
H83         H  0.62387251  0.91254795  0.25816490     0.06100
C84         C  0.60010587  0.05388309  0.23034272     0.03100
C85         C  0.60395769  0.02734792  0.23030805    -0.13000
C86         C  0.61744064  0.01523972  0.25026634     0.00600
C87         C  0.62808610  0.03071470  0.26954695    -0.11500
C88         C  0.62642199  0.05734997  0.26851326     0.03100
C89         C  0.61200212  0.06884720  0.24914169    -0.11000
H90         H  0.59609372  0.01643677  0.21464914     0.08700
H91         H  0.63794585  0.02239400  0.28561814     0.06300
H92         H  0.60950399  0.08937781  0.24912187     0.06100
O93         O  0.72238593  0.17629720  0.45957557    -0.74400
O94         O  0.75794207  0.21232934  0.40652214    -0.74400
O95         O  0.72056918  0.17643327  0.40802433    -0.74500
O96         O  0.75952181  0.21241884  0.45831545    -0.74600
O97         O  0.78912903  0.18194198  0.45748571    -0.74500
O98         O  0.75020001  0.14596224  0.40677340    -0.74500
O99         O  0.78745559  0.18183743  0.40589254    -0.74400
O100        O  0.75198978  0.14584509  0.45836390    -0.74500
Ni101      Ni  0.73906851  0.19548262  0.43314521     1.25400
Ni102      Ni  0.77074012  0.16282967  0.43209200     1.25400
C103        C  0.73115911  0.15484677  0.46745067     0.87800
C104        C  0.77871318  0.20299563  0.39743962     0.87700
C105        C  0.72874133  0.15510452  0.39931708     0.87700
C106        C  0.78080745  0.20326451  0.46617120     0.87900
C107        C  0.60255866  0.94501958  0.62874671     0.03100
C108        C  0.62085818  0.93240576  0.61389588    -0.13000
C109        C  0.63950162  0.94632120  0.60074785     0.00600
C110        C  0.64083590  0.97286349  0.60379116    -0.11500
C111        C  0.62232449  0.98616022  0.61815358     0.03100
C112        C  0.60297664  0.97175431  0.63026760    -0.11000
H113        H  0.62001241  0.91183282  0.61183824     0.08700
H114        H  0.65639591  0.98280022  0.59457082     0.06300
H115        H  0.58797482  0.98096420  0.64100776     0.06100
C116        C  0.60827922  0.05426720  0.64032562     0.03100
C117        C  0.60980922  0.02759966  0.63974638    -0.13000
C118        C  0.62277425  0.01479261  0.61992720     0.00600
C119        C  0.63533914  0.02974999  0.60132467    -0.11500
C120        C  0.63544601  0.05652520  0.60276942     0.03100
C121        C  0.62155297  0.06869482  0.62216533    -0.11000
H122        H  0.60028114  0.01718971  0.65479687     0.08700
H123        H  0.64489395  0.02092557  0.58530205     0.06300
H124        H  0.62006717  0.08932604  0.62239997     0.06100
C125        C  0.22512756  0.94502187  0.60896237     0.03100
C126        C  0.22448609  0.97166579  0.61213702    -0.13000
C127        C  0.24394024  0.98461789  0.62568090     0.00600
C128        C  0.26340787  0.96976342  0.63687499    -0.11500
C129        C  0.26328168  0.94306010  0.63534805     0.03100
C130        C  0.24416845  0.93074276  0.62120607    -0.11000
H131        H  0.20891412  0.98196743  0.60339228     0.08700
H132        H  0.27947546  0.97861262  0.64630463     0.06300
H133        H  0.24447720  0.91016044  0.61917854     0.06100
C134        C  0.26439393  0.05249759  0.64401210     0.03100
C135        C  0.26048077  0.02601092  0.64507561    -0.13000
C136        C  0.24504000  0.01335106  0.62684118     0.00600
C137        C  0.23210031  0.02850270  0.60867674    -0.11500
C138        C  0.23465075  0.05516020  0.60858819     0.03100
C139        C  0.25082805  0.06699608  0.62622210    -0.11000
H140        H  0.27002959  0.01559175  0.66008050     0.08700
H141        H  0.22078040  0.01992505  0.59371111     0.06300
H142        H  0.25343899  0.08751025  0.62558431     0.06100
O143        O  0.46343597  0.13473049  0.76200303    -0.74400
O144        O  0.41242828  0.17113523  0.79975480    -0.74400
O145        O  0.41145005  0.13533331  0.76250348    -0.74500
O146        O  0.46416601  0.17054716  0.79895334    -0.74600
O147        O  0.46422038  0.20100361  0.76939251    -0.74500
O148        O  0.41172721  0.16581541  0.73292288    -0.74500
O149        O  0.41244370  0.20152905  0.76999269    -0.74400
O150        O  0.46347290  0.16531097  0.73246341    -0.74500
Ni151      Ni  0.43785567  0.15182292  0.78185289     1.25400
Ni152      Ni  0.43795321  0.18448994  0.75015504     1.25400
C153        C  0.47211898  0.14418416  0.74115566     0.87800
C154        C  0.40390353  0.19228931  0.79099065     0.87700
C155        C  0.40259129  0.14496006  0.74179722     0.87700
C156        C  0.47314286  0.19150438  0.79006024     0.87900
O157        O  0.15146191  0.17792858  0.41395714    -0.74400
O158        O  0.11380770  0.21274034  0.46600821    -0.74400
O159        O  0.15104955  0.17694739  0.46559090    -0.74500
O160        O  0.11396323  0.21378704  0.41448442    -0.74600
O161        O  0.08447420  0.18312073  0.41390179    -0.74500
O162        O  0.12146204  0.14635197  0.46460455    -0.74500
O163        O  0.08426575  0.18225037  0.46529335    -0.74400
O164        O  0.12191488  0.14733936  0.41321214    -0.74500
Ni165      Ni  0.13363985  0.19644820  0.43999837     1.25400
Ni166      Ni  0.10199880  0.16367773  0.43919431     1.25400
C167        C  0.14309862  0.15667305  0.40521909     0.87800
C168        C  0.09271282  0.20344705  0.47417431     0.87700
C169        C  0.14239753  0.15542458  0.47335535     0.87700
C170        C  0.09272045  0.20479529  0.40626638     0.87900
C171        C  0.63329776  0.32673908  0.88293372     0.03100
C172        C  0.63417666  0.32854427  0.90966655    -0.13000
C173        C  0.62203482  0.31019603  0.92523221     0.00600
C174        C  0.60900303  0.28999073  0.91308503    -0.11500
C175        C  0.60629990  0.28932787  0.88643413     0.03100
C176        C  0.61886606  0.30750310  0.87143379    -0.11000
H177        H  0.64395164  0.34473538  0.91792733     0.08700
H178        H  0.60033344  0.27483745  0.92409519     0.06300
H179        H  0.61717290  0.30689499  0.85079307     0.06100
C180        C  0.60202369  0.30359657  0.99529446     0.03100
C181        C  0.60240375  0.30140251  0.96856056    -0.13000
C182        C  0.62196788  0.31263897  0.95381293     0.00600
C183        C  0.64076377  0.32700849  0.96664866    -0.11500
C184        C  0.63976925  0.33041934  0.99320164     0.03100
C185        C  0.62078316  0.31820861  0.00752549    -0.11000
H186        H  0.58682915  0.29132616  0.95949436     0.08700
H187        H  0.65631320  0.33583468  0.95631702     0.06300
H188        H  0.62038577  0.32047409  0.02810860     0.06100
O189        O  0.80465188  0.47499937  0.10726597    -0.74400
O190        O  0.76745355  0.52378773  0.06711824    -0.74400
O191        O  0.80379240  0.52660937  0.10364237    -0.74500
O192        O  0.76821862  0.47206658  0.07051073    -0.74600
O193        O  0.73818740  0.47335424  0.10062356    -0.74500
O194        O  0.77319106  0.52825739  0.13313889    -0.74500
O195        O  0.73699358  0.52462639  0.09688878    -0.74400
O196        O  0.77445188  0.47701784  0.13713052    -0.74500
Ni197      Ni  0.78712809  0.49925749  0.08602776     1.25400
Ni198      Ni  0.75466566  0.50082447  0.11798555     1.25400
C199        C  0.79577007  0.46816297  0.12904708     0.87800
C200        C  0.74616242  0.53243528  0.07561116     0.87700
C201        C  0.79416215  0.53667601  0.12375964     0.87700
C202        C  0.74720066  0.46382542  0.07996914     0.87900
C203        C  0.62752944  0.66574156  0.88066405     0.03100
C204        C  0.63065585  0.66671115  0.90726045    -0.13000
C205        C  0.61982183  0.68650726  0.92203634     0.00600
C206        C  0.60577004  0.70554375  0.90915928    -0.11500
C207        C  0.60106336  0.70392093  0.88274671     0.03100
C208        C  0.61206145  0.68392295  0.86868541    -0.11000
H209        H  0.64121416  0.65143546  0.91616488     0.08700
H210        H  0.59799841  0.72163674  0.91947064     0.06300
H211        H  0.60792846  0.68192527  0.84850350     0.06100
C212        C  0.60401559  0.69645417  0.99299332     0.03100
C213        C  0.62197927  0.68022435  0.00441602    -0.13000
C214        C  0.64009710  0.66742272  0.98947810     0.00600
C215        C  0.64080689  0.67167127  0.96305426    -0.11500
C216        C  0.62175782  0.68615128  0.95073937     0.03100
C217        C  0.60349225  0.69863103  0.96620402    -0.11000
H218        H  0.62131611  0.67687995  0.02484181     0.08700
H219        H  0.65603711  0.66281967  0.95230091     0.06300
H220        H  0.58841944  0.70982450  0.95771080     0.06100
C221        C  0.27578943  0.69826931  0.88406771     0.03100
C222        C  0.27271422  0.69996561  0.91074357    -0.13000
C223        C  0.25812046  0.68177175  0.92439920     0.00600
C224        C  0.24569981  0.66245874  0.91020995    -0.11500
C225        C  0.24757868  0.66145452  0.88354719     0.03100
C226        C  0.26324005  0.67876604  0.87067612    -0.11000
H227        H  0.28162067  0.71580965  0.92050433     0.08700
H228        H  0.23465450  0.64771381  0.91945768     0.06300
H229        H  0.26548229  0.67704611  0.85016298     0.06100
C230        C  0.27211490  0.69687391  0.99480023     0.03100
C231        C  0.27421643  0.69590674  0.96807247    -0.13000
C232        C  0.25597535  0.68276570  0.95312261     0.00600
C233        C  0.23606198  0.66991850  0.96608806    -0.11500
C234        C  0.23488609  0.66939100  0.99288386     0.03100
C235        C  0.25263668  0.68336872  0.00710525    -0.11000
H236        H  0.29036707  0.70532925  0.95933671     0.08700
H237        H  0.22124679  0.65997088  0.95575294     0.06300
H238        H  0.25196219  0.68292736  0.02780771     0.06100
O239        O  0.46419463  0.84808562  0.12725636    -0.74400
O240        O  0.41114859  0.81268312  0.09153712    -0.74400
O241        O  0.41249649  0.84744060  0.12986998    -0.74500
O242        O  0.46279080  0.81339648  0.08902031    -0.74600
O243        O  0.46451381  0.78203268  0.11755270    -0.74500
O244        O  0.41463953  0.81612202  0.15869668    -0.74500
O245        O  0.41282701  0.78139662  0.12021740    -0.74400
O246        O  0.46596976  0.81661654  0.15579678    -0.74500
Ni247      Ni  0.43755983  0.83153172  0.10839732     1.25400
Ni248      Ni  0.43950908  0.79790150  0.13904579     1.25400
C249        C  0.47378669  0.83820754  0.14748765     0.87800
C250        C  0.40335743  0.79102475  0.09982238     0.87700
C251        C  0.40563209  0.83751599  0.15114898     0.87700
C252        C  0.47218906  0.79215157  0.09660991     0.87900
C253        C  0.26584792  0.29502384  0.87696370     0.03100
C254        C  0.26312161  0.29447002  0.90358608    -0.13000
C255        C  0.24962299  0.31385558  0.91655129     0.00600
C256        C  0.23821713  0.33333200  0.90176961    -0.11500
C257        C  0.23863481  0.33259555  0.87491970     0.03100
C258        C  0.25240913  0.31317865  0.86272007    -0.11000
H259        H  0.27255840  0.27935198  0.91391994     0.08700
H260        H  0.22965610  0.34971889  0.91090817     0.06300
H261        H  0.25359506  0.31269680  0.84204747     0.06100
C262        C  0.22942858  0.33124191  0.98464329     0.03100
C263        C  0.24776935  0.31827408  0.99914111    -0.13000
C264        C  0.26654800  0.30350629  0.98712784     0.00600
C265        C  0.26717236  0.30217667  0.96032502    -0.11500
C266        C  0.24861540  0.31467151  0.94525974     0.03100
C267        C  0.22942545  0.32866258  0.95796938    -0.11000
H268        H  0.24800452  0.32036134  0.01974887     0.08700
H269        H  0.28245744  0.29146255  0.95157808     0.06300
H270        H  0.21432346  0.33792177  0.94738278     0.06100
C271        C  0.87895253  0.34264462  0.62682613     0.03100
C272        C  0.90560964  0.34131126  0.62807698    -0.13000
C273        C  0.91969657  0.32661539  0.61047174     0.00600
C274        C  0.90593563  0.31225264  0.59213003    -0.11500
C275        C  0.87911535  0.31245391  0.59161834     0.03100
C276        C  0.86572523  0.32796477  0.60880695    -0.11000
H277        H  0.91498491  0.35187700  0.64311975     0.08700
H278        H  0.91566597  0.30122794  0.57764630     0.06300
H279        H  0.84504817  0.32874701  0.60803895     0.06100
C280        C  0.98919976  0.30838260  0.59732521     0.03100
C281        C  0.96250432  0.30721494  0.59905416    -0.13000
C282        C  0.94842920  0.32676844  0.61099607     0.00600
C283        C  0.96220309  0.34667361  0.62301178    -0.11500
C284        C  0.98901009  0.34661354  0.62371824     0.03100
C285        C  0.00240750  0.32776850  0.61024226    -0.11000
H286        H  0.95301514  0.29093102  0.59067390     0.08700
H287        H  0.95251122  0.36265220  0.63172004     0.06300
H288        H  0.02309635  0.32830374  0.60967174     0.06100
O289        O  0.15454670  0.47810907  0.75341714    -0.74400
O290        O  0.11470620  0.53057230  0.72213334    -0.74400
O291        O  0.15305512  0.52954510  0.75677536    -0.74500
O292        O  0.11572577  0.47900454  0.71883928    -0.74600
O293        O  0.08657703  0.47739678  0.74988551    -0.74500
O294        O  0.12505892  0.52605229  0.78864439    -0.74500
O295        O  0.08659880  0.52865124  0.75406003    -0.74400
O296        O  0.12527176  0.47447692  0.78424556    -0.74500
Ni297      Ni  0.13552361  0.50437094  0.73665675     1.25400
Ni298      Ni  0.10490044  0.50152752  0.77036428     1.25400
C299        C  0.14643747  0.46769814  0.77397902     0.87800
C300        C  0.09418320  0.53838556  0.73291131     0.87700
C301        C  0.14522133  0.53611160  0.77905245     0.87700
C302        C  0.09468959  0.47027446  0.72792097     0.87900
C303        C  0.87515537  0.66115130  0.63644029     0.03100
C304        C  0.90180243  0.66381945  0.63820338    -0.13000
C305        C  0.91565674  0.67850912  0.62020742     0.00600
C306        C  0.90153081  0.69108448  0.60093264    -0.11500
C307        C  0.87479391  0.68995118  0.60017687     0.03100
C308        C  0.86176237  0.67464041  0.61770632    -0.11000
H309        H  0.91120942  0.65424315  0.65381321     0.08700
H310        H  0.91083990  0.70192029  0.58611101     0.06300
H311        H  0.84118000  0.67276261  0.61638537     0.06100
C312        C  0.98450797  0.69832461  0.60426644     0.03100
C313        C  0.99852859  0.68072989  0.61863343    -0.13000
C314        C  0.98606139  0.66312401  0.63441844     0.00600
C315        C  0.95924241  0.66260113  0.63511701    -0.11500
C316        C  0.94448948  0.68008440  0.62082108     0.03100
C317        C  0.95777922  0.69852951  0.60623503    -0.11000
H318        H  0.01915562  0.68015219  0.61695794     0.08700
H319        H  0.95034328  0.64816156  0.64676360     0.06300
H320        H  0.94778967  0.71330101  0.59597177     0.06100
O321        O  0.13670145  0.82750796  0.46624612    -0.74400
O322        O  0.10473324  0.79114088  0.41123566    -0.74400
O323        O  0.14039717  0.82812696  0.41443564    -0.74500
O324        O  0.10107352  0.79025735  0.46289141    -0.74600
O325        O  0.07065795  0.81991968  0.46164884    -0.74500
O326        O  0.10961410  0.85736662  0.41221259    -0.74500
O327        O  0.07391772  0.82029595  0.40991725    -0.74400
O328        O  0.10640399  0.85723869  0.46412085    -0.74500
Ni329      Ni  0.12182130  0.80823508  0.43878711     1.25400
Ni330      Ni  0.08907397  0.83977345  0.43694167     1.25400
C331        C  0.12673541  0.84832117  0.47442431     0.87800
C332        C  0.08403942  0.79970796  0.40139008     0.87700
C333        C  0.13127867  0.84867083  0.40484182     0.87700
C334        C  0.07936987  0.79875615  0.47029801     0.87900
C335        C  0.88055053  0.69585161  0.26728948     0.03100
C336        C  0.90736019  0.69687523  0.26735788    -0.13000
C337        C  0.92173769  0.68555553  0.24757261     0.00600
C338        C  0.90845800  0.67367736  0.22745961    -0.11500
C339        C  0.88188884  0.67095062  0.22813156     0.03100
C340        C  0.86794786  0.68241520  0.24786149    -0.11000
H341        H  0.91672491  0.70638132  0.28309209     0.08700
H342        H  0.91856510  0.66576409  0.21127271     0.06300
H343        H  0.84737254  0.68022726  0.24859203     0.06100
C344        C  0.99048091  0.66397940  0.23675982     0.03100
C345        C  0.00394535  0.68076225  0.25260320    -0.13000
C346        C  0.99087401  0.69970314  0.26631175     0.00600
C347        C  0.96436622  0.70232148  0.26318533    -0.11500
C348        C  0.95031437  0.68467790  0.24854028     0.03100
C349        C  0.96384194  0.66531180  0.23565307    -0.11000
H350        H  0.02448854  0.67893200  0.25438784     0.08700
H351        H  0.95493894  0.71810964  0.27255635     0.06300
H352        H  0.95399269  0.65065536  0.22495907     0.06100
C353        C  0.88270425  0.30662643  0.27345830     0.03100
C354        C  0.87019272  0.32528118  0.25907890    -0.13000
C355        C  0.88423411  0.34322779  0.24524340     0.00600
C356        C  0.91095390  0.34278135  0.24618395    -0.11500
C357        C  0.92415113  0.32356565  0.25971670     0.03100
C358        C  0.90946170  0.30529949  0.27307828    -0.11000
H359        H  0.84950902  0.32630697  0.25919772     0.08700
H360        H  0.92102468  0.35771065  0.23618617     0.06300
H361        H  0.91835914  0.28983749  0.28337692     0.06100
C362        C  0.99404436  0.33904547  0.24463297     0.03100
C363        C  0.96743462  0.33701334  0.24246912    -0.13000
C364        C  0.95287628  0.32319008  0.26047694     0.00600
C365        C  0.96618824  0.30983469  0.27971699    -0.11500
C366        C  0.99289775  0.31050159  0.28099971     0.03100
C367        C  0.00674378  0.32551744  0.26380263    -0.11000
H368        H  0.95849419  0.34655786  0.22654589     0.08700
H369        H  0.95623302  0.29932026  0.29439576     0.06300
H370        H  0.02733460  0.32683384  0.26552840     0.06100
O371        O  0.13917949  0.52637655  0.10096521    -0.74400
O372        O  0.10625010  0.47290155  0.13771177    -0.74400
O373        O  0.14057747  0.47470349  0.09923663    -0.74500
O374        O  0.10488777  0.52420931  0.13910063    -0.74600
O375        O  0.07329805  0.52452265  0.11061394    -0.74500
O376        O  0.10864545  0.47414788  0.07108897    -0.74500
O377        O  0.07418738  0.47294819  0.10982434    -0.74400
O378        O  0.10782311  0.52627649  0.07223191    -0.74500
Ni379      Ni  0.12385753  0.49950261  0.12018413     1.25400
Ni380      Ni  0.08987891  0.49943237  0.08983728     1.25400
C381        C  0.12879984  0.53559192  0.08084913     0.87800
C382        C  0.08457307  0.46436930  0.13027662     0.87700
C383        C  0.13043976  0.46605629  0.07871837     0.87700
C384        C  0.08331297  0.53270927  0.13139622     0.87900
C385        C  0.00812064  0.35687094  0.22781980    -0.19900
C386        C  0.02957087  0.34905127  0.21345870     0.36400
C387        C  0.04219000  0.36691420  0.19790256    -0.25800
C388        C  0.03353780  0.39216585  0.19634053     0.02800
C389        C  0.01229106  0.40005653  0.21077177     0.27600
C390        C  0.99972298  0.38228482  0.22634324    -0.25000
N391        N  0.03811426  0.32300159  0.21437873    -0.82300
H392        H  0.05860722  0.36112009  0.18668783     0.13400
C393        C  0.04682322  0.41022195  0.17935034     0.02800
N394        N  0.00357073  0.42603764  0.20942168    -0.80900
H395        H  0.98340942  0.38830814  0.23759530     0.18200
C396        C  0.03704072  0.41474758  0.15488357    -0.25800
C397        C  0.04914617  0.43188049  0.13811329     0.36300
C398        C  0.07139840  0.44495663  0.14629077    -0.19800
C399        C  0.08104835  0.44011809  0.17095634    -0.25000
C400        C  0.06892970  0.42298208  0.18756304     0.27600
H401        H  0.01995809  0.40472445  0.14885090     0.13400
N402        N  0.03890507  0.43587562  0.11294957    -0.82300
H403        H  0.09793318  0.45005755  0.17760117     0.18200
N404        N  0.07888484  0.41851511  0.21277627    -0.80900
H405        H  0.02211433  0.42536035  0.11039830     0.33900
H406        H  0.05214474  0.42862656  0.09985450     0.38400
H407        H  0.09547920  0.42925192  0.21579072     0.33800
H408        H  0.06538996  0.42511815  0.22591720     0.30500
H409        H  0.98749691  0.42865061  0.22103179     0.33800
H410        H  0.01794684  0.43765784  0.21693708     0.30500
H411        H  0.02360545  0.31161587  0.20673263     0.38400
H412        H  0.05414410  0.32045244  0.20270959     0.33900
C413        C  0.00400093  0.64470293  0.22128206    -0.19900
C414        C  0.00181086  0.64465546  0.19441247     0.36400
C415        C  0.01417780  0.62560143  0.18022850    -0.25800
C416        C  0.02846102  0.60654816  0.19242136     0.02800
C417        C  0.03042502  0.60645591  0.21933036     0.27600
C418        C  0.01837810  0.62577260  0.23350864    -0.25000
N419        N  0.98721562  0.66410655  0.18169089    -0.82300
H420        H  0.01300250  0.62579271  0.15955269     0.13400
C421        C  0.04213735  0.58744550  0.17668970     0.02800
N422        N  0.04441384  0.58659826  0.23209029    -0.80900
H423        H  0.01970661  0.62578912  0.25417601     0.18200
C424        C  0.06869103  0.58534726  0.17918339    -0.25800
C425        C  0.08264255  0.56790107  0.16442483     0.36300
C426        C  0.06964081  0.55206201  0.14679754    -0.19800
C427        C  0.04304695  0.55450436  0.14403599    -0.25000
C428        C  0.02912842  0.57193647  0.15891670     0.27600
H429        H  0.07862450  0.59771255  0.19249368     0.13400
N430        N  0.10995858  0.56657976  0.16703683    -0.82300
H431        H  0.03297549  0.54240807  0.13059113     0.18200
N432        N  0.00184761  0.57375829  0.15629757    -0.80900
H433        H  0.11635890  0.57916180  0.18119006     0.33900
H434        H  0.11796949  0.57281072  0.14983534     0.38400
H435        H  0.99525061  0.56112000  0.14228646     0.33800
H436        H  0.99370259  0.56794346  0.17357688     0.30500
H437        H  0.04402983  0.58932577  0.25187521     0.33800
H438        H  0.03500229  0.56935105  0.22849439     0.30500
H439        H  0.99627865  0.68159154  0.18502877     0.38400
H440        H  0.98737701  0.66123764  0.16192487     0.33900
C441        C  0.07158455  0.78600099  0.37974073    -0.19900
C442        C  0.08032401  0.76197127  0.37075849     0.36400
C443        C  0.06781012  0.75021498  0.35010577    -0.25800
C444        C  0.04647380  0.76149576  0.33869649     0.02800
C445        C  0.03773777  0.78533445  0.34733456     0.27600
C446        C  0.05042407  0.79741893  0.36765094    -0.25000
N447        N  0.10142622  0.74923243  0.38282880    -0.82300
H448        H  0.07410465  0.73165791  0.34344866     0.13400
C449        C  0.03199321  0.74688872  0.31942777     0.02800
N450        N  0.01578064  0.79693331  0.33563861    -0.80900
H451        H  0.04355410  0.81581158  0.37413649     0.18200
C452        C  0.00953484  0.73460138  0.32709837    -0.25800
C453        C  0.99591143  0.71901321  0.31011352     0.36300
C454        C  0.00470085  0.71620012  0.28470418    -0.19800
C455        C  0.02714476  0.72875152  0.27700462    -0.25000
C456        C  0.04090909  0.74413081  0.29419256     0.27600
H457        H  0.00303180  0.73667110  0.34666198     0.13400
N458        N  0.97361005  0.70548586  0.31876768    -0.82300
H459        H  0.03384650  0.72662338  0.25752259     0.18200
N460        N  0.06390027  0.75685843  0.28625073    -0.80900
H461        H  0.96970389  0.70975097  0.33789641     0.33900
H462        H  0.97770508  0.68596983  0.31796983     0.38400
H463        H  0.06793243  0.75272490  0.26711584     0.33800
H464        H  0.06055520  0.77650470  0.28727549     0.30500
H465        H  0.01161119  0.81440671  0.34435979     0.33800
H466        H  0.02049086  0.80096233  0.31664639     0.30500
H467        H  0.09545205  0.74383341  0.40111739     0.38400
H468        H  0.10593193  0.73233388  0.37318612     0.33900
C469        C  0.99745474  0.71502289  0.58531860    -0.19900
C470        C  0.01902798  0.72992942  0.59173437     0.36400
C471        C  0.03132272  0.74423131  0.57259110    -0.25800
C472        C  0.02235900  0.74396583  0.54736317     0.02800
C473        C  0.00060224  0.72955413  0.54100245     0.27600
C474        C  0.98836713  0.71519742  0.56003764    -0.25000
N475        N  0.02828475  0.73053782  0.61758429    -0.82300
H476        H  0.04807380  0.75546733  0.57724862     0.13400
C477        C  0.03648110  0.75813508  0.52749264     0.02800
N478        N  0.99136320  0.72923626  0.51513314    -0.80900
H479        H  0.97195279  0.70362739  0.55501353     0.18200
C480        C  0.05393466  0.74495104  0.51212420    -0.25800
C481        C  0.06781950  0.75760622  0.49296160     0.36300
C482        C  0.06431512  0.78417046  0.48938750    -0.19800
C483        C  0.04641004  0.79717879  0.50464587    -0.25000
C484        C  0.03242286  0.78437986  0.52365370     0.27600
H485        H  0.05661979  0.72465626  0.51507747     0.13400
N486        N  0.08516802  0.74348696  0.47700216    -0.82300
H487        H  0.04355932  0.81748266  0.50200234     0.18200
N488        N  0.01429573  0.79791125  0.53923335    -0.80900
H489        H  0.08572496  0.72429370  0.48244297     0.33900
H490        H  0.07793090  0.74388754  0.45838619     0.38400
H491        H  0.01374199  0.81717680  0.53415490     0.33800
H492        H  0.99616731  0.79045928  0.53529535     0.30500
H493        H  0.97533458  0.71740617  0.51355763     0.33800
H494        H  0.98525415  0.74768468  0.51067902     0.30500
H495        H  0.01405645  0.73879987  0.62892086     0.38400
H496        H  0.04434398  0.74231709  0.61902617     0.33900
C497        C  0.00127301  0.64506669  0.65003269    -0.19900
C498        C  0.99683757  0.61848771  0.64918956     0.36400
C499        C  0.01177431  0.60220289  0.66435568    -0.25800
C500        C  0.03112711  0.61191020  0.68014011     0.02800
C501        C  0.03553600  0.63843836  0.68106171     0.27600
C502        C  0.02063214  0.65474413  0.66589292    -0.25000
N503        N  0.97761348  0.60810409  0.63254229    -0.82300
H504        H  0.00871321  0.58176401  0.66347443     0.13400
C505        C  0.04724693  0.59392245  0.69483795     0.02800
N506        N  0.05502807  0.64866125  0.69749831    -0.80900
H507        H  0.02391299  0.67515605  0.66663340     0.18200
C508        C  0.07362686  0.59340599  0.69028847    -0.25800
C509        C  0.08951781  0.57601620  0.70304086     0.36300
C510        C  0.07864933  0.55843163  0.72043343    -0.19800
C511        C  0.05226474  0.55935819  0.72532477    -0.25000
C512        C  0.03645739  0.57695358  0.71272526     0.27600
H513        H  0.08180052  0.60651958  0.67651862     0.13400
N514        N  0.11660122  0.57629111  0.69845446    -0.82300
H515        H  0.04382745  0.54596963  0.73865577     0.18200
N516        N  0.00948866  0.57761196  0.71789465    -0.80900
H517        H  0.12136074  0.59014825  0.68489575     0.33900
H518        H  0.12547747  0.58174952  0.71549567     0.38400
H519        H  0.00455581  0.56375897  0.73140325     0.33800
H520        H  0.00535506  0.59531876  0.72613151     0.30500
H521        H  0.05589722  0.66852676  0.69586706     0.33800
H522        H  0.04972769  0.64469849  0.71635445     0.30500
H523        H  0.98316098  0.61195584  0.61373898     0.38400
H524        H  0.97673175  0.58824663  0.63429534     0.33900
C525        C  0.00307225  0.36620732  0.63870772    -0.19900
C526        C  0.99811920  0.36983937  0.66500161     0.36400
C527        C  0.01260320  0.38771406  0.67887388    -0.25800
C528        C  0.03184146  0.40218070  0.66702888     0.02800
C529        C  0.03632882  0.39899956  0.64058591     0.27600
C530        C  0.02210540  0.38084206  0.62678124    -0.25000
N531        N  0.97883917  0.35491714  0.67766427    -0.82300
H532        H  0.00930858  0.38992550  0.69919847     0.13400
C533        C  0.04774463  0.41984998  0.68273586     0.02800
N534        N  0.05523392  0.41431730  0.62785494    -0.80900
H535        H  0.02571603  0.37821110  0.60655597     0.18200
C536        C  0.07446491  0.41726277  0.68243283    -0.25800
C537        C  0.09022264  0.43333002  0.69713280     0.36300
C538        C  0.07901670  0.45229600  0.71266071    -0.19800
C539        C  0.05228187  0.45455445  0.71338793    -0.25000
C540        C  0.03654459  0.43876769  0.69837630     0.27600
H541        H  0.08305330  0.40240155  0.67086746     0.13400
N542        N  0.11749174  0.43013111  0.69671319    -0.82300
H543        H  0.04365394  0.46919771  0.72521024     0.18200
N544        N  0.00928725  0.44214222  0.69864108    -0.80900
H545        H  0.12265397  0.41540096  0.68423305     0.33900
H546        H  0.12316340  0.42441800  0.71498409     0.38400
H547        H  0.00412167  0.45680188  0.71119017     0.33800
H548        H  0.00376696  0.44799851  0.68036532     0.30500
H549        H  0.05624744  0.40959491  0.60846716     0.33800
H550        H  0.04920849  0.43332044  0.62882264     0.30500
H551        H  0.98470749  0.33581161  0.67718478     0.38400
H552        H  0.97745694  0.36001238  0.69689698     0.33900
C553        C  0.21181257  0.34956672  0.99706308    -0.19900
C554        C  0.19658210  0.34264491  0.01822316     0.36400
C555        C  0.18199894  0.36145353  0.03069551    -0.25800
C556        C  0.18233387  0.38683674  0.02221805     0.02800
C557        C  0.19669523  0.39352068  0.00048098     0.27600
C558        C  0.21134959  0.37482694  0.98814058    -0.25000
N559        N  0.19608776  0.31664437  0.02694417    -0.82300
H560        H  0.17072624  0.35647267  0.04733756     0.13400
C561        C  0.16863071  0.40667945  0.03687483     0.02800
N562        N  0.19657974  0.41938858  0.99132772    -0.80900
H563        H  0.22302689  0.38012411  0.97187532     0.18200
C564        C  0.18292818  0.42525802  0.04976669    -0.25800
C565        C  0.17089654  0.44509065  0.06317520     0.36300
C566        C  0.14393177  0.44613783  0.06390502    -0.19800
C567        C  0.12963820  0.42752844  0.05083439    -0.25000
C568        C  0.14177059  0.40774941  0.03731041     0.27600
H569        H  0.20360465  0.42436068  0.04911583     0.13400
N570        N  0.18597029  0.46438614  0.07562787    -0.82300
H571        H  0.10895940  0.42825080  0.05143029     0.18200
N572        N  0.12702307  0.38883971  0.02393392    -0.80900
H573        H  0.20545315  0.46067314  0.07339260     0.33900
H574        H  0.18239545  0.48170848  0.06635650     0.38400
H575        H  0.10747939  0.39228151  0.02624854     0.33800
H576        H  0.13091238  0.39079477  0.00443681     0.30500
H577        H  0.20828473  0.42120268  0.97523050     0.33800
H578        H  0.17798746  0.42357290  0.98537117     0.30500
H579        H  0.18824300  0.30553103  0.01230766     0.38400
H580        H  0.18396102  0.31476721  0.04271065     0.33900
C581        C  0.16175522  0.44766206  0.78621616    -0.19900
C582        C  0.18709117  0.45230851  0.79406481     0.36400
C583        C  0.20044675  0.43316573  0.80731786    -0.25800
C584        C  0.18904051  0.40941043  0.81234120     0.02800
C585        C  0.16416960  0.40441720  0.80311636     0.27600
C586        C  0.15057675  0.42381582  0.79063829    -0.25000
N587        N  0.19882113  0.47665137  0.78919944    -0.82300
H588        H  0.21949610  0.43704042  0.81441715     0.13400
C589        C  0.20252853  0.39039211  0.82851399     0.02800
N590        N  0.15285263  0.37963966  0.80651104    -0.80900
H591        H  0.13124589  0.42028607  0.78410992     0.18200
C592        C  0.18994556  0.38061304  0.85007918    -0.25800
C593        C  0.20107571  0.36156993  0.86526127     0.36300
C594        C  0.22599031  0.35288407  0.85949330    -0.19800
C595        C  0.23894314  0.36338136  0.83837781    -0.25000
C596        C  0.22734887  0.38174068  0.82261715     0.27600
H597        H  0.17102296  0.38755589  0.85479480     0.13400
N598        N  0.18686266  0.35061450  0.88606628    -0.82300
H599        H  0.25817812  0.35711289  0.83403036     0.18200
N600        N  0.24051754  0.39131430  0.80048810    -0.80900
H601        H  0.16895059  0.35927683  0.88779587     0.33900
H602        H  0.18351862  0.33144723  0.88162437     0.38400
H603        H  0.25862085  0.38304387  0.79891443     0.33800
H604        H  0.23020631  0.38558177  0.78436137     0.30500
H605        H  0.13450182  0.37911474  0.79864813     0.33800
H606        H  0.16386295  0.36655368  0.79619179     0.30500
H607        H  0.18871270  0.49043301  0.79953414     0.38400
H608        H  0.21755835  0.47692676  0.79611580     0.33900
C609        C  0.21680462  0.65196099  0.00594018    -0.19900
C610        C  0.20003111  0.66049619  0.02527461     0.36400
C611        C  0.18427247  0.64271349  0.03789368    -0.25800
C612        C  0.18505651  0.61670429  0.03145063     0.02800
C613        C  0.20198838  0.60822375  0.01228605     0.27600
C614        C  0.21746758  0.62596612  0.99955727    -0.25000
N615        N  0.19897469  0.68711856  0.03183352    -0.82300
H616        H  0.17126042  0.64910127  0.05268307     0.13400
C617        C  0.16849476  0.59813605  0.04497003     0.02800
N618        N  0.20370247  0.58150521  0.00620260    -0.80900
H619        H  0.23068733  0.61939477  0.98502481     0.18200
C620        C  0.15070411  0.58389125  0.03086562    -0.25800
C621        C  0.13710910  0.56361493  0.04205211     0.36300
C622        C  0.14133469  0.55759899  0.06804929    -0.19800
C623        C  0.15824886  0.57282662  0.08240457    -0.25000
C624        C  0.17188867  0.59297886  0.07114438     0.27600
H625        H  0.14808050  0.58812430  0.01076773     0.13400
N626        N  0.11967797  0.54878878  0.02687308    -0.82300
H627        H  0.16116426  0.56877703  0.10249444     0.18200
N628        N  0.18961008  0.60779792  0.08601636    -0.80900
H629        H  0.11839449  0.55616543  0.00835953     0.33900
H630        H  0.12735257  0.53044888  0.02510026     0.38400
H631        H  0.18965202  0.60172132  0.10504801     0.33800
H632        H  0.20792984  0.60432987  0.07885304     0.30500
H633        H  0.21702844  0.57842367  0.99161776     0.33800
H634        H  0.21064605  0.57209112  0.02237040     0.30500
H635        H  0.19233401  0.69699671  0.01580763     0.38400
H636        H  0.18568381  0.69022358  0.04642996     0.33900
C637        C  0.29092286  0.71129908  0.01010851    -0.19900
C638        C  0.28321788  0.73184290  0.02573559     0.36400
C639        C  0.30152983  0.74473973  0.04050125    -0.25800
C640        C  0.32731325  0.73750217  0.03982023     0.02800
C641        C  0.33501652  0.71699447  0.02410137     0.27600
C642        C  0.31669712  0.70411130  0.00933375    -0.25000
N643        N  0.25686753  0.73954179  0.02642281    -0.82300
H644        H  0.29571708  0.76044511  0.05266979     0.13400
C645        C  0.34608719  0.75154946  0.05567217     0.02800
N646        N  0.36140031  0.70943455  0.02319526    -0.80900
H647        H  0.32244925  0.68824918  0.99733724     0.18200
C648        C  0.35994206  0.73831646  0.07432335    -0.25800
C649        C  0.37869415  0.75062269  0.08905606     0.36300
C650        C  0.38332649  0.77701616  0.08535606    -0.19800
C651        C  0.36893606  0.79028890  0.06695366    -0.25000
C652        C  0.35049433  0.77780720  0.05199413     0.27600
H653        H  0.35632713  0.71814007  0.07710510     0.13400
N654        N  0.39327520  0.73620667  0.10730583    -0.82300
H655        H  0.37221432  0.81048829  0.06401047     0.18200
N656        N  0.33647481  0.79160050  0.03283959    -0.80900
H657        H  0.38685245  0.71733402  0.10815713     0.33900
H658        H  0.41210792  0.73544358  0.10065438     0.38400
H659        H  0.34186218  0.81077497  0.03264207     0.33800
H660        H  0.34153496  0.78404477  0.01499895     0.30500
H661        H  0.36382970  0.69386301  0.01087260     0.33800
H662        H  0.37178239  0.72455361  0.01538653     0.30500
H663        H  0.25205010  0.74615695  0.00818894     0.38400
H664        H  0.25436676  0.75488244  0.03894235     0.33900
C665        C  0.15971332  0.55527630  0.79421720    -0.19900
C666        C  0.17611598  0.57334589  0.78256021     0.36400
C667        C  0.19029410  0.59019361  0.79796012    -0.25800
C668        C  0.18797816  0.58980983  0.82462825     0.02800
C669        C  0.17112467  0.57242855  0.83629415     0.27600
C670        C  0.15716638  0.55533726  0.82099456    -0.25000
N671        N  0.17800663  0.57489192  0.75519689    -0.82300
H672        H  0.20303509  0.60392833  0.78915572     0.13400
C673        C  0.20342100  0.60774363  0.84011591     0.02800
N674        N  0.16848776  0.57206725  0.86364249    -0.80900
H675        H  0.14458022  0.54167728  0.83010853     0.18200
C676        C  0.19128702  0.62798733  0.85275745    -0.25800
C677        C  0.20546274  0.64567238  0.86713687     0.36300
C678        C  0.23219475  0.64287045  0.86893168    -0.19800
C679        C  0.24433018  0.62258610  0.85637625    -0.25000
C680        C  0.23011428  0.60479413  0.84213332     0.27600
H681        H  0.17076364  0.63012187  0.85110414     0.13400
N682        N  0.19294877  0.66663864  0.87970799    -0.82300
H683        H  0.26487127  0.62055399  0.85791198     0.18200
N684        N  0.24256640  0.58365074  0.82982764    -0.80900
H685        H  0.17321902  0.66591453  0.87657217     0.33900
H686        H  0.19946431  0.68348751  0.87125511     0.38400
H687        H  0.26223153  0.58421223  0.83317691     0.33800
H688        H  0.23579057  0.56690664  0.83836407     0.30500
H689        H  0.15521297  0.55824062  0.86923133     0.33800
H690        H  0.18607523  0.56657364  0.87133789     0.30500
H691        H  0.16020550  0.58071607  0.74832375     0.38400
H692        H  0.19105994  0.58902563  0.74981023     0.33900
C693        C  0.58501468  0.71036299  0.00891643    -0.19900
C694        C  0.59257075  0.72472762  0.03053945     0.36400
C695        C  0.57398427  0.73763370  0.04500518    -0.25800
C696        C  0.54818308  0.73693102  0.03797142     0.02800
C697        C  0.54056738  0.72276810  0.01641153     0.27600
C698        C  0.55904657  0.70956789  0.00211366    -0.25000
N699        N  0.61910170  0.72662573  0.03738547    -0.82300
H700        H  0.57964233  0.74870692  0.06156630     0.13400
C701        C  0.52926030  0.75130671  0.05324685     0.02800
N702        N  0.51407749  0.72183258  0.00923179    -0.80900
H703        H  0.55312938  0.69840619  0.98571280     0.18200
C704        C  0.51802267  0.77318766  0.04284315    -0.25800
C705        C  0.49984229  0.78734993  0.05665694     0.36300
C706        C  0.49222958  0.77891372  0.08128683    -0.19800
C707        C  0.50387415  0.75698452  0.09160907    -0.25000
C708        C  0.52233375  0.74319292  0.07789054     0.27600
H709        H  0.52371774  0.77936048  0.02391250     0.13400
N710        N  0.48915106  0.81006319  0.04558723    -0.82300
H711        H  0.49852941  0.75040576  0.11048613     0.18200
N712        N  0.53395906  0.72084712  0.08876553    -0.80900
H713        H  0.49572885  0.81257656  0.02687221     0.33900
H714        H  0.49610921  0.82559269  0.05602460     0.38400
H715        H  0.52692624  0.71751842  0.10718163     0.33800
H716        H  0.52851840  0.70519030  0.07764034     0.30500
H717        H  0.51164698  0.71072039  0.99280373     0.33800
H718        H  0.50414393  0.71262302  0.02391170     0.30500
H719        H  0.62850924  0.73615133  0.02256196     0.38400
H720        H  0.62137895  0.73783049  0.05377133     0.33900
C721        C  0.86937202  0.65336992  0.20992855    -0.19900
C722        C  0.84739563  0.66036521  0.19600221     0.36400
C723        C  0.83535858  0.64207678  0.18046875    -0.25800
C724        C  0.84521030  0.61729213  0.17849526     0.02800
C725        C  0.86748294  0.61048704  0.19181011     0.27600
C726        C  0.87939352  0.62862946  0.20738098    -0.25000
N727        N  0.83750353  0.68589392  0.19767788    -0.82300
H728        H  0.81816316  0.64700446  0.17006357     0.13400
C729        C  0.83121976  0.59791714  0.16381143     0.02800
N730        N  0.87761069  0.58505209  0.18973916    -0.80900
H731        H  0.89617837  0.62321968  0.21821388     0.18200
C732        C  0.83931893  0.59173715  0.13909617    -0.25800
C733        C  0.82741136  0.57207213  0.12525421     0.36300
C734        C  0.80720672  0.55817621  0.13675207    -0.19800
C735        C  0.79912633  0.56481251  0.16153198    -0.25000
C736        C  0.81101087  0.58445344  0.17519827     0.27600
H737        H  0.85505878  0.60224222  0.13069432     0.13400
N738        N  0.83580264  0.56631885  0.09972342    -0.82300
H739        H  0.78375322  0.55433176  0.17058727     0.18200
N740        N  0.80289994  0.59062965  0.20073482    -0.80900
H741        H  0.85129389  0.57782007  0.09460835     0.33900
H742        H  0.82090473  0.57109217  0.08730290     0.38400
H743        H  0.78753973  0.57906876  0.20623702     0.33800
H744        H  0.81793663  0.58633355  0.21310828     0.30500
H745        H  0.89431069  0.58325711  0.20055248     0.33800
H746        H  0.86428195  0.57253346  0.19774692     0.30500
H747        H  0.85131968  0.69819372  0.19016579     0.38400
H748        H  0.82124709  0.68785247  0.18623654     0.33900
C749        C  0.87095590  0.36201653  0.22899323    -0.19900
C750        C  0.87492835  0.38842675  0.23199216     0.36400
C751        C  0.86283496  0.40554447  0.21538347    -0.25800
C752        C  0.84680680  0.39663269  0.19585442     0.02800
C753        C  0.84241013  0.37025085  0.19308318     0.27600
C754        C  0.85459838  0.35314812  0.20970278    -0.25000
N755        N  0.89086971  0.39788420  0.25212792    -0.82300
H756        H  0.86595403  0.42586664  0.21770482     0.13400
C757        C  0.83418170  0.41519057  0.17882723     0.02800
N758        N  0.82552513  0.36101458  0.17348901    -0.80900
H759        H  0.85158062  0.33280304  0.20746211     0.18200
C760        C  0.84096704  0.41612253  0.15293941    -0.25800
C761        C  0.82923951  0.43351550  0.13617340     0.36300
C762        C  0.81002578  0.45007762  0.14562062    -0.19800
C763        C  0.80346971  0.44897332  0.17170124    -0.25000
C764        C  0.81525604  0.43166420  0.18832689     0.27600
H765        H  0.85558274  0.40328134  0.14586910     0.13400
N766        N  0.83640433  0.43386705  0.10965060    -0.82300
H767        H  0.78891738  0.46160247  0.17923691     0.18200
N768        N  0.80787230  0.43046787  0.21477739    -0.80900
H769        H  0.84931099  0.41916077  0.10564201     0.33900
H770        H  0.84630361  0.45087724  0.10637891     0.38400
H771        H  0.79371149  0.44397336  0.21877666     0.33800
H772        H  0.79967764  0.41255253  0.21795040     0.30500
H773        H  0.82447085  0.34112094  0.17394750     0.33800
H774        H  0.80717498  0.36778745  0.17766553     0.30500
H775        H  0.90547297  0.40868075  0.24391934     0.38400
H776        H  0.87985428  0.41004573  0.26359472     0.33900
C777        C  0.73176152  0.55192883  0.06113755    -0.19900
C778        C  0.74414142  0.57092579  0.04647184     0.36400
C779        C  0.72944689  0.59000440  0.03459818    -0.25800
C780        C  0.70280693  0.59038580  0.03715456     0.02800
C781        C  0.69041568  0.57131225  0.05146115     0.27600
C782        C  0.70501636  0.55230021  0.06334365    -0.25000
N783        N  0.77150875  0.57119977  0.04421447    -0.82300
H784        H  0.73875022  0.60475413  0.02345680     0.13400
C785        C  0.68787365  0.61069627  0.02455666     0.02800
N786        N  0.66305654  0.57146459  0.05393908    -0.80900
H787        H  0.69545265  0.53773109  0.07450405     0.18200
C788        C  0.67306070  0.60440011  0.00322091    -0.25800
C789        C  0.65745758  0.62268020  0.99144824     0.36300
C790        C  0.65695625  0.64789692  0.00110627    -0.19800
C791        C  0.67191163  0.65419151  0.02247447    -0.25000
C792        C  0.68739580  0.63575266  0.03434747     0.27600
H793        H  0.67338844  0.58499658  0.99603038     0.13400
N794        N  0.64165594  0.61558829  0.97010987    -0.82300
H795        H  0.67139834  0.67348834  0.02992279     0.18200
N796        N  0.70240525  0.64222557  0.05641940    -0.80900
H797        H  0.62260112  0.61737797  0.97584283     0.33900
H798        H  0.64440630  0.59641114  0.96531629     0.38400
H799        H  0.70000377  0.66145011  0.06112537     0.33800
H800        H  0.69533504  0.63166912  0.07185835     0.30500
H801        H  0.65688826  0.55596359  0.06490032     0.33800
H802        H  0.65798618  0.58793631  0.06402826     0.30500
H803        H  0.77898536  0.57486031  0.06237467     0.38400
H804        H  0.77746297  0.58622713  0.03249768     0.33900
C805        C  0.65718395  0.34873316  0.00564499    -0.19900
C806        C  0.67388020  0.34124500  0.02537510     0.36400
C807        C  0.68891641  0.35981126  0.03760442    -0.25800
C808        C  0.68751181  0.38551859  0.03028817     0.02800
C809        C  0.67089245  0.39295432  0.01049079     0.27600
C810        C  0.65603619  0.37440406  0.99818652    -0.25000
N811        N  0.67555605  0.31487796  0.03272446    -0.82300
H812        H  0.70185337  0.35428290  0.05278122     0.13400
C813        C  0.70346990  0.40464374  0.04348461     0.02800
N814        N  0.66890318  0.41936808  0.00331765    -0.80900
H815        H  0.64297348  0.38004313  0.98315205     0.18200
C816        C  0.72224526  0.41766491  0.02958293    -0.25800
C817        C  0.73679757  0.43711642  0.04090979     0.36300
C818        C  0.73283361  0.44317395  0.06698779    -0.19800
C819        C  0.71414950  0.42975018  0.08089975    -0.25000
C820        C  0.69926154  0.41071936  0.06933402     0.27600
H821        H  0.72512722  0.41295092  0.00961576     0.13400
N822        N  0.75500381  0.45106614  0.02579131    -0.82300
H823        H  0.71090531  0.43428471  0.10084322     0.18200
N824        N  0.67957945  0.39785336  0.08354146    -0.80900
H825        H  0.75588618  0.44376440  0.00722160     0.33900
H826        H  0.74829367  0.46980243  0.02415325     0.38400
H827        H  0.67898118  0.40453223  0.10238455     0.33800
H828        H  0.66205417  0.40260185  0.07526780     0.30500
H829        H  0.65584321  0.42161438  0.98838336     0.33800
H830        H  0.66147048  0.42932833  0.01897377     0.30500
H831        H  0.68873973  0.31259237  0.04755595     0.38400
H832        H  0.68270207  0.30471398  0.01707912     0.33900
C833        C  0.07765531  0.21732344  0.49393326    -0.19900
C834        C  0.08710874  0.23936650  0.50657577     0.36400
C835        C  0.07203602  0.25133354  0.52526281    -0.25800
C836        C  0.04756243  0.24235340  0.53115043     0.02800
C837        C  0.03793398  0.22065030  0.51858762     0.27600
C838        C  0.05310075  0.20827207  0.50023788    -0.25000
N839        N  0.11176851  0.24978164  0.50039938    -0.82300
H840        H  0.07905420  0.26834999  0.53474171     0.13400
C841        C  0.03161991  0.25719198  0.54912133     0.02800
N842        N  0.01274221  0.21140031  0.52444815    -0.80900
H843        H  0.04550819  0.19158281  0.49065877     0.18200
C844        C  0.00985910  0.26952354  0.53973207    -0.25800
C845        C  0.99567070  0.28595748  0.55530712     0.36300
C846        C  0.00313635  0.28998556  0.58091810    -0.19800
C847        C  0.02464348  0.27715749  0.59049650    -0.25000
C848        C  0.03895195  0.26069230  0.57481051     0.27600
H849        H  0.00438880  0.26709437  0.51989929     0.13400
N850        N  0.97433910  0.29939736  0.54469504    -0.82300
H851        H  0.03030000  0.28007740  0.61019959     0.18200
N852        N  0.06098104  0.24766074  0.58469505    -0.80900
H853        H  0.98081236  0.31007655  0.52912802     0.33900
H854        H  0.96122643  0.28591947  0.53792454     0.38400
H855        H  0.06384635  0.25235492  0.60392554     0.33800
H856        H  0.05715095  0.22810030  0.58408634     0.30500
H857        H  0.00839855  0.19535474  0.51338773     0.33800
H858        H  0.01278490  0.20541824  0.54351087     0.30500
H859        H  0.11043933  0.25780373  0.48218312     0.38400
H860        H  0.11638391  0.26483422  0.51273499     0.33900
C861        C  0.07730619  0.21986460  0.38805470    -0.19900
C862        C  0.05040131  0.21737338  0.38687107     0.36400
C863        C  0.03659237  0.23226166  0.36941858    -0.25800
C864        C  0.04901251  0.24960979  0.35328691     0.02800
C865        C  0.07578820  0.25219532  0.35447274     0.27600
C866        C  0.08964759  0.23743622  0.37200062    -0.25000
N867        N  0.03710943  0.20021761  0.40371727    -0.82300
H868        H  0.01596776  0.23063384  0.36861122     0.13400
C869        C  0.03372424  0.26504779  0.33526261     0.02800
N870        N  0.08877511  0.26960129  0.33766328    -0.80900
H871        H  0.11023728  0.23938685  0.37284722     0.18200
C872        C  0.03497013  0.29176604  0.33667407    -0.25800
C873        C  0.02145601  0.30705077  0.31933744     0.36300
C874        C  0.00637778  0.29528996  0.30041808    -0.19800
C875        C  0.00448134  0.26862388  0.29946455    -0.25000
C876        C  0.01822228  0.25331189  0.31659587     0.27600
H877        H  0.04658877  0.30066258  0.35132253     0.13400
N878        N  0.02289309  0.33440947  0.32083315    -0.82300
H879        H  0.99279085  0.25977331  0.28483878     0.18200
N880        N  0.01694123  0.22595281  0.31482179    -0.80900
H881        H  0.03487724  0.34000717  0.33580333     0.33900
H882        H  0.00463662  0.34116819  0.32529989     0.38400
H883        H  0.00461915  0.22041472  0.30008898     0.33800
H884        H  0.03511479  0.21936727  0.30983877     0.30500
H885        H  0.10846006  0.26930942  0.34103289     0.33800
H886        H  0.08607874  0.26310756  0.31896014     0.30500
H887        H  0.03942759  0.20704699  0.42235437     0.38400
H888        H  0.01747982  0.20041274  0.40001115     0.33900
C889        C  0.49431166  0.20449611  0.80384437    -0.19900
C890        C  0.50617212  0.22700873  0.79448627     0.36400
C891        C  0.52652741  0.23782573  0.80821226    -0.25800
C892        C  0.53485863  0.22707094  0.83119169     0.02800
C893        C  0.52335050  0.20475737  0.84053030     0.27600
C894        C  0.50327207  0.19362992  0.82676066    -0.25000
N895        N  0.49753752  0.23902416  0.77135148    -0.82300
H896        H  0.53542604  0.25524314  0.80144571     0.13400
C897        C  0.55405910  0.24076542  0.84648276     0.02800
N898        N  0.53199916  0.19371317  0.86412827    -0.80900
H899        H  0.49453067  0.17641055  0.83414702     0.18200
C900        C  0.54581449  0.25428801  0.86801553    -0.25800
C901        C  0.56278282  0.26961893  0.88189698     0.36300
C902        C  0.58862065  0.27104403  0.87417487    -0.19800
C903        C  0.59702726  0.25666296  0.85311710    -0.25000
C904        C  0.57990823  0.24144338  0.83916386     0.27600
H905        H  0.52582784  0.25357897  0.87340130     0.13400
N906        N  0.55364737  0.28450819  0.90312424    -0.82300
H907        H  0.61688052  0.25770410  0.84732884     0.18200
N908        N  0.58846794  0.22699451  0.81742979    -0.80900
H909        H  0.53423366  0.28110222  0.90633193     0.33900
H910        H  0.55532244  0.30377122  0.89816928     0.38400
H911        H  0.60806606  0.22964946  0.81455311     0.33800
H912        H  0.58588682  0.20767396  0.82166995     0.30500
H913        H  0.52139248  0.17734834  0.86851912     0.33800
H914        H  0.55084956  0.18777586  0.86143313     0.30500
H915        H  0.47948842  0.24672475  0.77504264     0.38400
H916        H  0.50929561  0.25444957  0.76658055     0.33900
C917        C  0.38339911  0.20606630  0.80471780    -0.19900
C918        C  0.38033785  0.20450221  0.83153113     0.36400
C919        C  0.36019761  0.21784475  0.84331910    -0.25800
C920        C  0.34325254  0.23271090  0.82886396     0.02800
C921        C  0.34618259  0.23404783  0.80212012     0.27600
C922        C  0.36631032  0.22089693  0.79037908    -0.25000
N923        N  0.39796309  0.18994542  0.84671844    -0.82300
H924        H  0.35805575  0.21718795  0.86390823     0.13400
C925        C  0.32336899  0.24808519  0.84187052     0.02800
N926        N  0.32859541  0.24874534  0.78700868    -0.80900
H927        H  0.36840729  0.22191967  0.76980042     0.18200
C928        C  0.32356870  0.27458877  0.83842020    -0.25800
C929        C  0.30484925  0.29009416  0.84954471     0.36300
C930        C  0.28531777  0.27881127  0.86437689    -0.19800
C931        C  0.28539633  0.25230582  0.86835334    -0.25000
C932        C  0.30424425  0.23676122  0.85712533     0.27600
H933        H  0.33859912  0.28322683  0.82709166     0.13400
N934        N  0.30589005  0.31733446  0.84625195    -0.82300
H935        H  0.27058332  0.24375019  0.88001333     0.18200
N936        N  0.30393004  0.20959760  0.86091901    -0.80900
H937        H  0.32131708  0.32249835  0.83465608     0.33900
H938        H  0.30921993  0.32548969  0.86418975     0.38400
H939        H  0.28868433  0.20435135  0.87271599     0.33800
H940        H  0.30066078  0.20104239  0.84315810     0.30500
H941        H  0.33348909  0.24790196  0.76763728     0.33800
H942        H  0.31059789  0.24028789  0.78874564     0.30500
H943        H  0.41584342  0.19866397  0.84523810     0.38400
H944        H  0.39285035  0.19065437  0.86605902     0.33900
C945        C  0.22121632  0.07063561  0.58920798    -0.19900
C946        C  0.23475842  0.08709611  0.57278661     0.36400
C947        C  0.22151137  0.10143822  0.55455817    -0.25800
C948        C  0.19488862  0.09968121  0.55247483     0.02800
C949        C  0.18118416  0.08345246  0.56906017     0.27600
C950        C  0.19455142  0.06887940  0.58717083    -0.25000
N951        N  0.26203890  0.08875202  0.57411672    -0.82300
H952        H  0.23210444  0.11369071  0.54166285     0.13400
C953        C  0.18174157  0.11427316  0.53221688     0.02800
N954        N  0.15380188  0.08200194  0.56749264    -0.80900
H955        H  0.18416630  0.05635202  0.59996513     0.18200
C956        C  0.16823405  0.10094380  0.51334382    -0.25800
C957        C  0.15574533  0.11393823  0.49355253     0.36300
C958        C  0.15657389  0.14089238  0.49288209    -0.19800
C959        C  0.17061795  0.15418107  0.51147179    -0.25000
C960        C  0.18311166  0.14112089  0.53126322     0.27600
H961        H  0.16773490  0.08027241  0.51392604     0.13400
N962        N  0.14262565  0.09985149  0.47393642    -0.82300
H963        H  0.17128763  0.17484442  0.51094353     0.18200
N964        N  0.19686720  0.15496566  0.55059426    -0.80900
H965        H  0.14374766  0.08022701  0.47738011     0.33900
H966        H  0.15218686  0.10315578  0.45669952     0.38400
H967        H  0.19609948  0.17458350  0.54707067     0.33800
H968        H  0.18755026  0.15191292  0.56801350     0.30500
H969        H  0.14665873  0.06917186  0.58101784     0.33800
H970        H  0.14653034  0.09996477  0.57229582     0.30500
H971        H  0.26693263  0.10778706  0.57769687     0.38400
H972        H  0.26947297  0.08370569  0.55628375     0.33900
C973        C  0.38150232  0.13177306  0.72805809    -0.19900
C974        C  0.36669229  0.14421151  0.70911676     0.36400
C975        C  0.34737690  0.13060702  0.69637613    -0.25800
C976        C  0.34205358  0.10512496  0.70248902     0.02800
C977        C  0.35636504  0.09282964  0.72165934     0.27600
C978        C  0.37598555  0.10621320  0.73414484    -0.25000
N979        N  0.37100495  0.17061876  0.70299156    -0.82300
H980        H  0.33633362  0.13992742  0.68156878     0.13400
C981        C  0.32170680  0.09139928  0.68832163     0.02800
N982        N  0.35082057  0.06681358  0.72840854    -0.80900
H983        H  0.38706959  0.09652966  0.74867172     0.18200
C984        C  0.32809380  0.06943560  0.67439905    -0.25800
C985        C  0.30962881  0.05625333  0.66009695     0.36300
C986        C  0.28409721  0.06501366  0.66009323    -0.19800
C987        C  0.27772848  0.08702280  0.67403334    -0.25000
C988        C  0.29628331  0.10031657  0.68816870     0.27600
H989        H  0.34774313  0.06293239  0.67421878     0.13400
N990        N  0.31686684  0.03450358  0.64495452    -0.82300
H991        H  0.25819357  0.09384935  0.67383711     0.18200
N992        N  0.28945011  0.12281239  0.70235455    -0.80900
H993        H  0.31416784  0.03928710  0.62575646     0.33900
H994        H  0.33632401  0.03053951  0.64714864     0.38400
H995        H  0.27006252  0.12693164  0.70007777     0.33800
H996        H  0.29222163  0.11883970  0.72175073     0.30500
H997        H  0.36315626  0.06049867  0.74278233     0.33800
H998        H  0.33238536  0.06634959  0.73608977     0.30500
H999        H  0.36592366  0.18139480  0.71906844     0.38400
H1000       H  0.35897232  0.17651589  0.68822212     0.33900
C1001       C  0.13881684  0.86245248  0.49594855    -0.19900
C1002       C  0.15451069  0.85012965  0.51417521     0.36400
C1003       C  0.16624661  0.86461092  0.53356267    -0.25800
C1004       C  0.16230761  0.89103093  0.53550967     0.02800
C1005       C  0.14596190  0.90320321  0.51789971     0.27600
C1006       C  0.13447642  0.88883397  0.49830543    -0.25000
N1007       N  0.15835937  0.82297938  0.51312929    -0.82300
H1008       H  0.17885047  0.85529608  0.54706465     0.13400
C1009       C  0.17669096  0.90587602  0.55507595     0.02800
N1010       N  0.14118287  0.93014401  0.51996002    -0.80900
H1011       H  0.12231513  0.89840552  0.48458419     0.18200
C1012       C  0.19297821  0.92554053  0.54697006    -0.25800
C1013       C  0.20842685  0.93885374  0.56440369     0.36300
C1014       C  0.20760750  0.93240056  0.59057611    -0.19800
C1015       C  0.19106881  0.91298299  0.59883821    -0.25000
C1016       C  0.17536102  0.89982257  0.58135397     0.27600
H1017       H  0.19420563  0.92999850  0.52678811     0.13400
N1018       N  0.22553906  0.95842291  0.55553817    -0.82300
H1019       H  0.19045083  0.90812372  0.61895362     0.18200
N1020       N  0.15809526  0.88035903  0.59010649    -0.80900
H1021       H  0.22374828  0.96094638  0.53580092     0.33900
H1022       H  0.24420206  0.95212067  0.55880116     0.38400
H1023       H  0.15940706  0.87823612  0.60993218     0.33800
H1024       H  0.13952057  0.88658071  0.58625358     0.30500
H1025       H  0.12885917  0.93621823  0.50546033     0.33800
H1026       H  0.13168793  0.93328822  0.53725142     0.30500
H1027       H  0.14071684  0.81427788  0.51666395     0.38400
H1028       H  0.17062153  0.81703931  0.52771303     0.33900
C1029       C  0.58991182  0.06665154  0.65780069    -0.19900
C1030       C  0.59745377  0.08534408  0.67566895     0.36400
C1031       C  0.57872269  0.09743365  0.69071734    -0.25800
C1032       C  0.55282687  0.09104107  0.68803147     0.02800
C1033       C  0.54545320  0.07183037  0.67073047     0.27600
C1034       C  0.56408034  0.05983963  0.65575444    -0.25000
N1035       N  0.62396961  0.09193384  0.67833029    -0.82300
H1036       H  0.58419030  0.11218044  0.70417960     0.13400
C1037       C  0.53317443  0.10540161  0.70225793     0.02800
N1038       N  0.51898772  0.06489495  0.66823448    -0.80900
H1039       H  0.55839657  0.04543286  0.64200501     0.18200
C1040       C  0.51686639  0.12155768  0.68858852    -0.25800
C1041       C  0.49660632  0.13420015  0.70072229     0.36300
C1042       C  0.49280155  0.13077562  0.72726748    -0.19800
C1043       C  0.50939154  0.11467948  0.74095042    -0.25000
C1044       C  0.52955433  0.10190509  0.72865854     0.27600
H1045       H  0.51973478  0.12389804  0.66820526     0.13400
N1046       N  0.47964072  0.15002859  0.68605931    -0.82300
H1047       H  0.50669980  0.11213320  0.76132069     0.18200
N1048       N  0.54619028  0.08525388  0.74275917    -0.80900
H1049       H  0.48541494  0.15076129  0.66690354     0.33900
H1050       H  0.46167206  0.14137770  0.68623440     0.38400
H1051       H  0.54103872  0.08489695  0.76203708     0.33800
H1052       H  0.54350361  0.06671807  0.73576861     0.30500
H1053       H  0.51672780  0.05061255  0.65448129     0.33800
H1054       H  0.51313360  0.05705302  0.68567249     0.30500
H1055       H  0.63356661  0.07576753  0.68490485     0.38400
H1056       H  0.62627714  0.10604266  0.69233639     0.33900
C1057       C  0.79311726  0.21711824  0.37738142    -0.19900
C1058       C  0.81523550  0.20674956  0.36556419     0.36400
C1059       C  0.82940924  0.22179782  0.34851005    -0.25800
C1060       C  0.82168950  0.24655392  0.34241630     0.02800
C1061       C  0.79923894  0.25666741  0.35314132     0.27600
C1062       C  0.78517921  0.24188121  0.37058051    -0.25000
N1063       N  0.82333046  0.18105414  0.37077421    -0.82300
H1064       H  0.84657640  0.21417770  0.33978359     0.13400
C1065       C  0.83758308  0.26168699  0.32481945     0.02800
N1066       N  0.79085507  0.28186182  0.34622986    -0.80900
H1067       H  0.76818233  0.24996171  0.37918114     0.18200
C1068       C  0.83239228  0.26092836  0.29857723    -0.25800
C1069       C  0.84742749  0.27481972  0.28123487     0.36300
C1070       C  0.86781020  0.28980166  0.29052330    -0.19800
C1071       C  0.87327501  0.29005144  0.31677976    -0.25000
C1072       C  0.85827134  0.27614869  0.33407983     0.27600
H1073       H  0.81664133  0.24940103  0.29167929     0.13400
N1074       N  0.84223485  0.27370987  0.25428504    -0.82300
H1075       H  0.88890326  0.30165637  0.32383563     0.18200
N1076       N  0.86393234  0.27655825  0.36096545    -0.80900
H1077       H  0.82660751  0.26181635  0.25063905     0.33900
H1078       H  0.85803436  0.26529452  0.24542317     0.38400
H1079       H  0.87999064  0.28787825  0.36456933     0.33800
H1080       H  0.84860116  0.28530063  0.37030719     0.30500
H1081       H  0.77374358  0.28634621  0.35553697     0.33800
H1082       H  0.80449165  0.29485434  0.35282150     0.30500
H1083       H  0.80950674  0.16879840  0.36317432     0.38400
H1084       H  0.84037593  0.17688449  0.36121766     0.33900
C1085       C  0.79573306  0.21777023  0.48552439    -0.19900
C1086       C  0.82250640  0.21504411  0.48813656     0.36400
C1087       C  0.83564683  0.23008658  0.50615394    -0.25800
C1088       C  0.82268859  0.24766220  0.52172968     0.02800
C1089       C  0.79592427  0.24988083  0.51962876     0.27600
C1090       C  0.78281211  0.23515959  0.50141078    -0.25000
N1091       N  0.83639391  0.19751065  0.47219032    -0.82300
H1092       H  0.85622619  0.22851183  0.50769015     0.13400
C1093       C  0.83742502  0.26406931  0.53971017     0.02800
N1094       N  0.78215274  0.26695411  0.53616833    -0.80900
H1095       H  0.76227231  0.23712032  0.49981036     0.18200
C1096       C  0.83513335  0.29073890  0.53805055    -0.25800
C1097       C  0.84866887  0.30691743  0.55469078     0.36300
C1098       C  0.86504597  0.29620758  0.57317237    -0.19800
C1099       C  0.86767483  0.26960072  0.57461199    -0.25000
C1100       C  0.85377727  0.25338939  0.55829197     0.27600
H1101       H  0.82282372  0.29894783  0.52359088     0.13400
N1102       N  0.84601348  0.33415705  0.55280615    -0.82300
H1103       H  0.88015085  0.26146883  0.58897816     0.18200
N1104       N  0.85581903  0.22614780  0.56081184    -0.80900
H1105       H  0.83315913  0.33894989  0.53831982     0.33900
H1106       H  0.86376733  0.34159958  0.54741788     0.38400
H1107       H  0.86862247  0.22139845  0.57538340     0.33800
H1108       H  0.83793750  0.21925371  0.56644137     0.30500
H1109       H  0.76258044  0.26639987  0.53215785     0.33800
H1110       H  0.78432742  0.26033794  0.55487249     0.30500
H1111       H  0.83523300  0.20419311  0.45339335     0.38400
H1112       H  0.85577269  0.19744048  0.47698560     0.33900
C1113       C  0.71698089  0.14026631  0.48723471    -0.19900
C1114       C  0.72099293  0.11377484  0.49102579     0.36400
C1115       C  0.70727437  0.10098555  0.51020102    -0.25800
C1116       C  0.68938305  0.11386591  0.52533206     0.02800
C1117       C  0.68501656  0.14007217  0.52143467     0.27600
C1118       C  0.69891916  0.15304614  0.50249349    -0.25000
N1119       N  0.73858477  0.09980090  0.47520126    -0.82300
H1120       H  0.71035097  0.08076353  0.51327271     0.13400
C1121       C  0.67508244  0.09946863  0.54497942     0.02800
N1122       N  0.66634547  0.15331128  0.53661895    -0.80900
H1123       H  0.69563307  0.17326131  0.49969426     0.18200
C1124       C  0.67943797  0.10468920  0.57088367    -0.25800
C1125       C  0.66671047  0.09086840  0.58998106     0.36300
C1126       C  0.64907284  0.07171166  0.58310825    -0.19800
C1127       C  0.64470259  0.06657814  0.55711810    -0.25000
C1128       C  0.65755193  0.08028882  0.53796424     0.27600
H1129       H  0.69312612  0.11925261  0.57628224     0.13400
N1130       N  0.67233674  0.09576531  0.61631798    -0.82300
H1131       H  0.63106397  0.05195901  0.55177060     0.18200
N1132       N  0.65287715  0.07490766  0.51142766    -0.80900
H1133       H  0.69189613  0.09285021  0.61913466     0.33900
H1134       H  0.66836765  0.11495652  0.62006121     0.38400
H1135       H  0.63956930  0.06015549  0.50949659     0.33800
H1136       H  0.64458970  0.09116480  0.50334113     0.30500
H1137       H  0.66547694  0.17254133  0.53143771     0.33800
H1138       H  0.64845642  0.14544620  0.53240197     0.30500
H1139       H  0.73119897  0.09965056  0.45666838     0.38400
H1140       H  0.73966994  0.08070255  0.48098669     0.33900
C1141       C  0.71317410  0.14076293  0.38047289    -0.19900
C1142       C  0.68620940  0.14280056  0.37987519     0.36400
C1143       C  0.67232661  0.12897344  0.36153152    -0.25800
C1144       C  0.68471820  0.11304288  0.34396806     0.02800
C1145       C  0.71151953  0.11070049  0.34467613     0.27600
C1146       C  0.72548716  0.12458166  0.36293332    -0.25000
N1147       N  0.67295183  0.15852191  0.39809900    -0.82300
H1148       H  0.65169460  0.13056942  0.36089794     0.13400
C1149       C  0.66930202  0.09898390  0.32487010     0.02800
N1150       N  0.72437205  0.09415649  0.32690859    -0.80900
H1151       H  0.74611179  0.12290191  0.36333609     0.18200
C1152       C  0.67223999  0.10471849  0.29887212    -0.25800
C1153       C  0.65811649  0.09165036  0.28015654     0.36300
C1154       C  0.64030659  0.07286961  0.28772481    -0.19800
C1155       C  0.63725543  0.06731981  0.31381715    -0.25000
C1156       C  0.65177166  0.08002744  0.33246388     0.27600
H1157       H  0.68583940  0.11925141  0.29319934     0.13400
N1158       N  0.66229211  0.09687237  0.25350623    -0.82300
H1159       H  0.62376583  0.05272547  0.31959724     0.18200
N1160       N  0.64914897  0.07350980  0.35902289    -0.80900
H1161       H  0.67598343  0.11120870  0.25121485     0.33900
H1162       H  0.66990553  0.08037142  0.24520186     0.38400
H1163       H  0.63544927  0.05915507  0.36139555     0.33800
H1164       H  0.66654875  0.06585551  0.36508281     0.30500
H1165       H  0.74413086  0.09469672  0.32984813     0.33800
H1166       H  0.71851818  0.07547982  0.33075863     0.30500
H1167       H  0.67578445  0.15052221  0.41617792     0.38400
H1168       H  0.65326090  0.15814072  0.39476205     0.33900
C1169       C  0.49418521  0.85201909  0.16130345    -0.19900
C1170       C  0.49685659  0.85037473  0.18815845     0.36400
C1171       C  0.51564673  0.86504555  0.20039980    -0.25800
C1172       C  0.53187802  0.88109375  0.18645099     0.02800
C1173       C  0.52962037  0.88241489  0.15966456     0.27600
C1174       C  0.51074450  0.86788455  0.14735815    -0.25000
N1175       N  0.47992596  0.83470434  0.20306248    -0.82300
H1176       H  0.51760561  0.86410947  0.22099776     0.13400
C1177       C  0.55046792  0.89716858  0.20035214     0.02800
N1178       N  0.54618997  0.89884323  0.14517654    -0.80900
H1179       H  0.50884859  0.86906651  0.12677080     0.18200
C1180       C  0.57668060  0.89405361  0.19577121    -0.25800
C1181       C  0.59473937  0.90923618  0.20854136     0.36300
C1182       C  0.58627738  0.92762183  0.22635284    -0.19800
C1183       C  0.56007676  0.93066595  0.23093323    -0.25000
C1184       C  0.54204244  0.91565546  0.21803914     0.27600
H1185       H  0.58299280  0.87979527  0.18214816     0.13400
N1186       N  0.62154950  0.90633780  0.20331111    -0.82300
H1187       H  0.55371712  0.94480911  0.24465518     0.18200
N1188       N  0.51519596  0.91920339  0.22264938    -0.80900
H1189       H  0.62798220  0.92331180  0.19506623     0.33900
H1190       H  0.62454131  0.89193103  0.18976255     0.38400
H1191       H  0.51222120  0.93344114  0.23632737     0.33800
H1192       H  0.50697851  0.92575222  0.20565854     0.30500
H1193       H  0.54211950  0.89749567  0.12565067     0.33800
H1194       H  0.54226199  0.91764504  0.15056988     0.30500
H1195       H  0.48483047  0.81567910  0.19961751     0.38400
H1196       H  0.48289968  0.83770656  0.22259521     0.33900
C1197       C  0.37630964  0.21648388  0.07354597    -0.19900
C1198       C  0.35985660  0.23384643  0.08623052     0.36400
C1199       C  0.34148796  0.24739239  0.07206258    -0.25800
C1200       C  0.33935557  0.24429948  0.04554559     0.02800
C1201       C  0.35546779  0.22687223  0.03287453     0.27600
C1202       C  0.37370680  0.21314641  0.04697010    -0.25000
N1203       N  0.36145123  0.23746989  0.11341825    -0.82300
H1204       H  0.32904531  0.26085833  0.08167349     0.13400
C1205       C  0.32048262  0.25980378  0.03117599     0.02800
N1206       N  0.35318699  0.22316943  0.00573533    -0.80900
H1207       H  0.38616476  0.19995106  0.03702256     0.18200
C1208       C  0.32916764  0.27690946  0.01246943    -0.25800
C1209       C  0.31193150  0.29173088  0.99832882     0.36300
C1210       C  0.28547545  0.28925737  0.00265719    -0.19800
C1211       C  0.27680512  0.27257921  0.02179277    -0.25000
C1212       C  0.29405288  0.25778022  0.03608958     0.27600
H1213       H  0.34948128  0.27891261  0.00898348     0.13400
N1214       N  0.32137688  0.30973079  0.98002716    -0.82300
H1215       H  0.25646670  0.27070717  0.02518995     0.18200
N1216       N  0.28485818  0.24048047  0.05532079    -0.80900
H1217       H  0.33341847  0.32251584  0.98955000     0.33900
H1218       H  0.33230910  0.29980328  0.96657808     0.38400
H1219       H  0.26496045  0.24139091  0.05667569     0.33800
H1220       H  0.28935405  0.22194964  0.04938774     0.30500
H1221       H  0.36651272  0.20980230  0.99928890     0.33800
H1222       H  0.33510417  0.21540272  0.00219707     0.30500
H1223       H  0.37815829  0.24776547  0.11708830     0.38400
H1224       H  0.34643789  0.24894479  0.11988640     0.33900
C1225       C  0.48399031  0.22003461  0.07333888    -0.19900
C1226       C  0.48396858  0.22309139  0.04655337     0.36400
C1227       C  0.50326275  0.23770777  0.03498239    -0.25800
C1228       C  0.52246923  0.24937552  0.04961998     0.02800
C1229       C  0.52199981  0.24705668  0.07645552     0.27600
C1230       C  0.50262898  0.23255122  0.08805352    -0.25000
N1231       N  0.46419451  0.21167743  0.03128089    -0.82300
H1232       H  0.50342774  0.23998320  0.01439829     0.13400
C1233       C  0.54338312  0.26316925  0.03637817     0.02800
N1234       N  0.54147984  0.25895811  0.09173413    -0.80900
H1235       H  0.50251396  0.23038314  0.10864882     0.18200
C1236       C  0.54755736  0.28915590  0.04143783    -0.25800
C1237       C  0.56666934  0.30286015  0.02841367     0.36300
C1238       C  0.58199156  0.29015467  0.01016492    -0.19800
C1239       C  0.57793152  0.26410773  0.00540816    -0.25000
C1240       C  0.55888825  0.25046758  0.01837808     0.27600
H1241       H  0.53548502  0.29886092  0.05517960     0.13400
N1242       N  0.57013491  0.32966527  0.03317961    -0.82300
H1243       H  0.58985141  0.25431819  0.99158654     0.18200
N1244       N  0.55526981  0.22370475  0.01345453    -0.80900
H1245       H  0.55737082  0.33603318  0.04717327     0.33900
H1246       H  0.56557232  0.33941093  0.01636317     0.38400
H1247       H  0.56810192  0.21728612  0.99954224     0.33800
H1248       H  0.55961920  0.21385784  0.03026539     0.30500
H1249       H  0.53827960  0.25550301  0.11116517     0.33800
H1250       H  0.55887868  0.25031547  0.08716007     0.30500
H1251       H  0.44691797  0.22021151  0.03642634     0.38400
H1252       H  0.46703730  0.21574802  0.01189175     0.33900
C1253       C  0.58244129  0.06594509  0.21169050    -0.19900
C1254       C  0.55708367  0.05708723  0.20880517     0.36400
C1255       C  0.54012108  0.07050259  0.19294767    -0.25800
C1256       C  0.54784816  0.09263414  0.18000700     0.02800
C1257       C  0.57344128  0.10088677  0.18201927     0.27600
C1258       C  0.59043552  0.08755447  0.19797944    -0.25000
N1259       N  0.54831667  0.03513625  0.22278285    -0.82300
H1260       H  0.52041683  0.06431278  0.19155858     0.13400
C1261       C  0.52834636  0.10802539  0.16624896     0.02800
N1262       N  0.58193790  0.12292700  0.16805208    -0.80900
H1263       H  0.60994673  0.09418207  0.19997304     0.18200
C1264       C  0.52424078  0.13339541  0.17374314    -0.25800
C1265       C  0.50463069  0.14816804  0.16289024     0.36300
C1266       C  0.48872604  0.13733042  0.14383880    -0.19800
C1267       C  0.49323771  0.11197934  0.13608183    -0.25000
C1268       C  0.51282441  0.09725688  0.14706068     0.27600
H1269       H  0.53601455  0.14152283  0.18871194     0.13400
N1270       N  0.50117349  0.17415125  0.17103458    -0.82300
H1271       H  0.48128339  0.10345866  0.12149109     0.18200
N1272       N  0.51702943  0.07141147  0.13882485    -0.80900
H1273       H  0.51592537  0.17972819  0.18330199     0.33900
H1274       H  0.48445727  0.17481181  0.18194569     0.38400
H1275       H  0.50390435  0.06629058  0.12465694     0.33800
H1276       H  0.53512923  0.07062038  0.13041452     0.30500
H1277       H  0.60124541  0.12654075  0.17168322     0.33800
H1278       H  0.58047694  0.11865726  0.14858635     0.30500
H1279       H  0.54881527  0.03972796  0.24225013     0.38400
H1280       H  0.52929815  0.03104945  0.21836507     0.33900
C1281       C  0.23394724  0.06785222  0.30093310    -0.19900
C1282       C  0.23523741  0.06366969  0.32749300     0.36400
C1283       C  0.22009030  0.07833766  0.34402191    -0.25800
C1284       C  0.20368419  0.09720107  0.33444888     0.02800
C1285       C  0.20226171  0.10141051  0.30788864     0.27600
C1286       C  0.21752715  0.08676925  0.29139015    -0.25000
N1287       N  0.25237277  0.04501869  0.33777024    -0.82300
H1288       H  0.22131685  0.07517837  0.36445232     0.13400
C1289       C  0.18800043  0.11237516  0.35242552     0.02800
N1290       N  0.18512958  0.12034189  0.29783435    -0.80900
H1291       H  0.21637407  0.08985607  0.27094622     0.18200
C1292       C  0.19174102  0.13882178  0.35400126    -0.25800
C1293       C  0.17705453  0.15390512  0.37067594     0.36300
C1294       C  0.15838518  0.14212169  0.38630236    -0.19800
C1295       C  0.15468166  0.11559805  0.38451119    -0.25000
C1296       C  0.16924692  0.10063374  0.36770637     0.27600
H1297       H  0.20618130  0.14769288  0.34210304     0.13400
N1298       N  0.18091515  0.18106306  0.37156148    -0.82300
H1299       H  0.14054330  0.10638812  0.39650038     0.18200
N1300       N  0.16504406  0.07356599  0.36599498    -0.80900
H1301       H  0.19562918  0.18651077  0.35916680     0.33900
H1302       H  0.16426767  0.18970077  0.36475691     0.38400
H1303       H  0.15066534  0.06786492  0.37866588     0.33800
H1304       H  0.15834916  0.06962593  0.34760236     0.30500
H1305       H  0.18643807  0.12110956  0.27789960     0.33800
H1306       H  0.16651027  0.11454389  0.30212519     0.30500
H1307       H  0.24164004  0.03191016  0.34831481     0.38400
H1308       H  0.26487133  0.05428230  0.35032067     0.33900
C1309       C  0.37947855  0.13471752  0.14711099    -0.19900
C1310       C  0.37874995  0.10776865  0.14609278     0.36400
C1311       C  0.36068528  0.09451924  0.16096663    -0.25800
C1312       C  0.34375487  0.10764192  0.17707589     0.02800
C1313       C  0.34417873  0.13450247  0.17777821     0.27600
C1314       C  0.36205825  0.14774809  0.16285161    -0.25000
N1315       N  0.39690937  0.09393596  0.13081804    -0.82300
H1316       H  0.36040247  0.07383920  0.16075408     0.13400
C1317       C  0.32690466  0.09304688  0.19449172     0.02800
N1318       N  0.32655894  0.14815760  0.19383978    -0.80900
H1319       H  0.36243068  0.16841632  0.16356003     0.18200
C1320       C  0.33073679  0.09521965  0.22091455    -0.25800
C1321       C  0.31548988  0.08159889  0.23823496     0.36300
C1322       C  0.29590022  0.06559841  0.22887908    -0.19800
C1323       C  0.29222437  0.06320250  0.20242354    -0.25000
C1324       C  0.30745351  0.07697495  0.18508896     0.27600
H1325       H  0.34587668  0.10744002  0.22799510     0.13400
N1326       N  0.31994692  0.08373086  0.26527238    -0.82300
H1327       H  0.27707145  0.05100365  0.19534897     0.18200
N1328       N  0.30304315  0.07504955  0.15805113    -0.80900
H1329       H  0.33495814  0.09637111  0.26896713     0.33900
H1330       H  0.32580857  0.06582509  0.27184435     0.38400
H1331       H  0.28803277  0.06242833  0.15429337     0.33800
H1332       H  0.29713648  0.09299792  0.15163063     0.30500
H1333       H  0.32948670  0.16784723  0.19232262     0.33800
H1334       H  0.30814743  0.14455559  0.18700700     0.30500
H1335       H  0.41502646  0.09723999  0.13853448     0.38400
H1336       H  0.39366101  0.07427830  0.13215914     0.33900
C1337       C  0.22323100  0.92994768  0.29596900    -0.19900
C1338       C  0.22346111  0.93542039  0.32239494     0.36400
C1339       C  0.20747791  0.92159499  0.33883979    -0.25800
C1340       C  0.19150058  0.90231053  0.32945902     0.02800
C1341       C  0.19103963  0.89690541  0.30306941     0.27600
C1342       C  0.20701462  0.91079777  0.28651409    -0.25000
N1343       N  0.24039392  0.95455867  0.33248679    -0.82300
H1344       H  0.20771514  0.92556882  0.35917065     0.13400
C1345       C  0.17597450  0.88756114  0.34785498     0.02800
N1346       N  0.17465232  0.87714558  0.29333790    -0.80900
H1347       H  0.20703451  0.90656980  0.26623809     0.18200
C1348       C  0.14939403  0.89052939  0.34809574    -0.25800
C1349       C  0.13425280  0.87794749  0.36637930     0.36300
C1350       C  0.14612785  0.86227894  0.38493120    -0.19800
C1351       C  0.17276299  0.85900498  0.38419908    -0.25000
C1352       C  0.18778630  0.87146366  0.36583740     0.27600
H1353       H  0.14050499  0.90288538  0.33408650     0.13400
N1354       N  0.10694345  0.88081914  0.36593814    -0.82300
H1355       H  0.18197468  0.84687914  0.39819300     0.18200
N1356       N  0.21503050  0.86799066  0.36541056    -0.80900
H1357       H  0.10141393  0.89328012  0.35132915     0.33900
H1358       H  0.09908667  0.86303925  0.36145565     0.38400
H1359       H  0.22076581  0.85568690  0.38003197     0.33800
H1360       H  0.21970249  0.85899662  0.34817712     0.30500
H1361       H  0.17651267  0.87565890  0.27347579     0.33800
H1362       H  0.18090390  0.85982327  0.30096403     0.30500
H1363       H  0.25912097  0.94828961  0.32945985     0.38400
H1364       H  0.23807975  0.95632718  0.35225113     0.33900
C1365       C  0.38725371  0.85112641  0.16736098    -0.19900
C1366       C  0.39492516  0.86217562  0.19069132     0.36400
C1367       C  0.37711671  0.87620851  0.20507305    -0.25800
C1368       C  0.35182222  0.87895603  0.19665963     0.02800
C1369       C  0.34401211  0.86710974  0.17372214     0.27600
C1370       C  0.36196655  0.85360214  0.15906499    -0.25000
N1371       N  0.42097063  0.85995014  0.19910215    -0.82300
H1372       H  0.38303978  0.88542143  0.22264848     0.13400
C1373       C  0.33389531  0.89515581  0.21140548     0.02800
N1374       N  0.31787503  0.86887535  0.16549351    -0.80900
H1375       H  0.35622944  0.84482209  0.14120184     0.18200
C1376       C  0.32311616  0.91655727  0.19951829    -0.25800
C1377       C  0.30524844  0.93194547  0.21227759     0.36300
C1378       C  0.29853243  0.92617699  0.23780341    -0.19800
C1379       C  0.30980274  0.90499895  0.24984919    -0.25000
C1380       C  0.32724241  0.88928677  0.23682528     0.27600
H1381       H  0.32839812  0.92099778  0.17999046     0.13400
N1382       N  0.29344172  0.95296790  0.19917496    -0.82300
H1383       H  0.30482148  0.90058912  0.26945476     0.18200
N1384       N  0.33791286  0.86720468  0.24912112    -0.80900
H1385       H  0.30064225  0.95467286  0.18059842     0.33900
H1386       H  0.27399270  0.94883274  0.19741016     0.38400
H1387       H  0.33106254  0.86559618  0.26783767     0.33800
H1388       H  0.33143706  0.85110227  0.23926046     0.30500
H1389       H  0.31527061  0.85912345  0.14824293     0.33800
H1390       H  0.30662316  0.85954157  0.17910218     0.30500
H1391       H  0.42435482  0.84072845  0.20318177     0.38400
H1392       H  0.42368912  0.86991735  0.21621158     0.33900
C1393       C  0.72778294  0.86581881  0.37991498    -0.19900
C1394       C  0.71077533  0.85440620  0.36230268     0.36400
C1395       C  0.69837670  0.86973612  0.34418519    -0.25800
C1396       C  0.70283643  0.89609376  0.34299639     0.02800
C1397       C  0.71985191  0.90753419  0.36044062     0.27600
C1398       C  0.73219366  0.89226066  0.37869670    -0.25000
N1399       N  0.70634915  0.82731795  0.36260692    -0.82300
H1400       H  0.68506933  0.86109883  0.33087765     0.13400
C1401       C  0.68891130  0.91133559  0.32367640     0.02800
N1402       N  0.72451017  0.93456077  0.35951541    -0.80900
H1403       H  0.74512744  0.90111325  0.39222018     0.18200
C1404       C  0.67260082  0.93096328  0.33178185    -0.25800
C1405       C  0.65700811  0.94395009  0.31427942     0.36300
C1406       C  0.65781224  0.93705166  0.28818154    -0.19800
C1407       C  0.67467123  0.91795714  0.27999387    -0.25000
C1408       C  0.69048043  0.90521754  0.29746066     0.27600
H1409       H  0.67135732  0.93549766  0.35195491     0.13400
N1410       N  0.63977558  0.96348367  0.32299470    -0.82300
H1411       H  0.67536837  0.91292618  0.25991118     0.18200
N1412       N  0.70800035  0.88594813  0.28878209    -0.80900
H1413       H  0.64171815  0.96635642  0.34268907     0.33900
H1414       H  0.62115836  0.95694672  0.31997887     0.38400
H1415       H  0.70673352  0.88367098  0.26897178     0.33800
H1416       H  0.72649100  0.89246571  0.29261513     0.30500
H1417       H  0.73736534  0.93999365  0.37382486     0.33800
H1418       H  0.73332531  0.93857233  0.34205287     0.30500
H1419       H  0.72351297  0.81838000  0.35762527     0.38400
H1420       H  0.69302309  0.82214920  0.34866232     0.33900
C1421       C  0.79955916  0.78340016  0.48817112    -0.19900
C1422       C  0.82620109  0.78496530  0.49270151     0.36400
C1423       C  0.83747091  0.76851143  0.51064036    -0.25800
C1424       C  0.82275708  0.75095275  0.52447160     0.02800
C1425       C  0.79620391  0.74972437  0.52046930     0.27600
C1426       C  0.78490452  0.76590102  0.50236610    -0.25000
N1427       N  0.84187317  0.80276992  0.47886375    -0.82300
H1428       H  0.85785215  0.76955651  0.51412535     0.13400
C1429       C  0.83543476  0.73435446  0.54350302     0.02800
N1430       N  0.78088695  0.73186146  0.53462872    -0.80900
H1431       H  0.76447728  0.76470914  0.49927727     0.18200
C1432       C  0.82867399  0.73658185  0.56933360    -0.25800
C1433       C  0.84114399  0.72213072  0.58814156     0.36300
C1434       C  0.86054319  0.70487841  0.58083952    -0.19800
C1435       C  0.86707993  0.70245862  0.55492612    -0.25000
C1436       C  0.85464572  0.71698834  0.53614528     0.27600
H1437       H  0.81404564  0.75013668  0.57486413     0.13400
N1438       N  0.83467922  0.72539689  0.61465637    -0.82300
H1439       H  0.88188492  0.68911347  0.54935939     0.18200
N1440       N  0.86138143  0.71420428  0.50964836    -0.80900
H1441       H  0.81998320  0.73873861  0.61674697     0.33900
H1442       H  0.85067456  0.73301590  0.62388930     0.38400
H1443       H  0.87596329  0.70075791  0.50747115     0.33800
H1444       H  0.84540974  0.70693084  0.50009207     0.30500
H1445       H  0.76163564  0.73350669  0.52958158     0.33800
H1446       H  0.78663062  0.71349250  0.52933643     0.30500
H1447       H  0.83735844  0.82104645  0.48551269     0.38400
H1448       H  0.86117755  0.80000341  0.48314551     0.33900
C1449       C  0.72763775  0.86484020  0.48914710    -0.19900
C1450       C  0.74024586  0.88304340  0.50474734     0.36400
C1451       C  0.72630376  0.89622748  0.52356151    -0.25800
C1452       C  0.70025863  0.89148154  0.52719825     0.02800
C1453       C  0.68766414  0.87331569  0.51195321     0.27600
C1454       C  0.70144399  0.86019623  0.49308079    -0.25000
N1455       N  0.76708718  0.88799045  0.50167865    -0.82300
H1456       H  0.73573553  0.91029548  0.53546944     0.13400
C1457       C  0.68604860  0.90617613  0.54658517     0.02800
N1458       N  0.66086769  0.86847241  0.51560990    -0.80900
H1459       H  0.69154690  0.84638926  0.48126265     0.18200
C1460       C  0.67083968  0.92660056  0.53855752    -0.25800
C1461       C  0.65588603  0.94026921  0.55609112     0.36300
C1462       C  0.65631205  0.93331006  0.58215981    -0.19800
C1463       C  0.67182091  0.91302324  0.59022632    -0.25000
C1464       C  0.68681194  0.89937392  0.57261014     0.27600
H1465       H  0.67035199  0.93156782  0.51846018     0.13400
N1466       N  0.63980756  0.96077994  0.54747400    -0.82300
H1467       H  0.67203951  0.90775530  0.61024848     0.18200
N1468       N  0.70262976  0.87855492  0.58089829    -0.80900
H1469       H  0.64185105  0.96353220  0.52778837     0.33900
H1470       H  0.62083830  0.95533011  0.55055046     0.38400
H1471       H  0.70119744  0.87616830  0.60071865     0.33800
H1472       H  0.69551461  0.86188149  0.57260367     0.30500
H1473       H  0.65437647  0.85474075  0.50263208     0.33800
H1474       H  0.65855445  0.86065735  0.53384243     0.30500
H1475       H  0.77688047  0.87145998  0.50703892     0.38400
H1476       H  0.77308944  0.90239256  0.51416349     0.33900
C1477       C  0.79950135  0.78386290  0.37965278    -0.19900
C1478       C  0.81483921  0.79538922  0.36065696     0.36400
C1479       C  0.82735800  0.77992516  0.34264282    -0.25800
C1480       C  0.82463256  0.75331252  0.34308811     0.02800
C1481       C  0.80907591  0.74179250  0.36176284     0.27600
C1482       C  0.79664030  0.75719545  0.37986607    -0.25000
N1483       N  0.81728615  0.82269387  0.35943554    -0.82300
H1484       H  0.83927301  0.78861894  0.32810761     0.13400
C1485       C  0.83811005  0.73778094  0.32370639     0.02800
N1486       N  0.80593410  0.71453447  0.36216419    -0.80900
H1487       H  0.78485997  0.74830989  0.39438755     0.18200
C1488       C  0.85720380  0.72073106  0.33150960    -0.25800
C1489       C  0.87092608  0.70626262  0.31353503     0.36300
C1490       C  0.86558904  0.70927176  0.28724109    -0.19800
C1491       C  0.84606603  0.72595168  0.27957497    -0.25000
C1492       C  0.83219806  0.74017564  0.29756560     0.27600
H1493       H  0.86148475  0.71887302  0.35168341     0.13400
N1494       N  0.89008827  0.68846954  0.32185836    -0.82300
H1495       H  0.84193432  0.72820388  0.25940946     0.18200
N1496       N  0.81218969  0.75711670  0.28945916    -0.80900
H1497       H  0.89170510  0.68866965  0.34176804     0.33900
H1498       H  0.88392372  0.67017255  0.31676531     0.38400
H1499       H  0.81032738  0.75676369  0.26956586     0.33800
H1500       H  0.79500688  0.75019044  0.29693109     0.30500
H1501       H  0.79397357  0.70907339  0.37721140     0.33800
H1502       H  0.79666116  0.70925616  0.34527497     0.30500
H1503       H  0.79929378  0.83014419  0.35513628     0.38400
H1504       H  0.82939986  0.82801027  0.34442370     0.33900
C1505       C  0.38105366  0.79202294  0.79899318    -0.19900
C1506       C  0.37262572  0.80055829  0.82332738     0.36400
C1507       C  0.35540979  0.78548672  0.83742436    -0.25800
C1508       C  0.34588772  0.76251885  0.82757930     0.02800
C1509       C  0.35356902  0.75432004  0.80313105     0.27600
C1510       C  0.37104989  0.76907850  0.78914830    -0.25000
N1511       N  0.38154224  0.82431176  0.83382020    -0.82300
H1512       H  0.34910225  0.79180066  0.85611904     0.13400
C1513       C  0.32771318  0.74721828  0.84297481     0.02800
N1514       N  0.34380038  0.73084420  0.79274702    -0.80900
H1515       H  0.37708934  0.76234949  0.77052561     0.18200
C1516       C  0.30288233  0.74332226  0.83378307    -0.25800
C1517       C  0.28543965  0.72810235  0.84723849     0.36300
C1518       C  0.29292971  0.71627714  0.87028363    -0.19800
C1519       C  0.31762258  0.72081813  0.87983170    -0.25000
C1520       C  0.33512945  0.73611175  0.86635902     0.27600
H1521       H  0.29702179  0.75214124  0.81599721     0.13400
N1522       N  0.26001927  0.72502981  0.83759947    -0.82300
H1523       H  0.32355013  0.71172508  0.89744585     0.18200
N1524       N  0.36055301  0.73996494  0.87600631    -0.80900
H1525       H  0.25174833  0.74312891  0.83600850     0.33900
H1526       H  0.26123894  0.71717978  0.81927138     0.38400
H1527       H  0.36292044  0.73059242  0.89347537     0.33800
H1528       H  0.37325753  0.73145054  0.86314421     0.30500
H1529       H  0.35115473  0.72759982  0.77445877     0.33800
H1530       H  0.35037565  0.71594616  0.80429309     0.30500
H1531       H  0.37381098  0.83897199  0.82269915     0.38400
H1532       H  0.37443831  0.82701542  0.85230188     0.33900
C1533       C  0.49182058  0.86329815  0.71885027    -0.19900
C1534       C  0.50944863  0.84964737  0.70360949     0.36400
C1535       C  0.52733842  0.86311509  0.68881638    -0.25800
C1536       C  0.52850168  0.88985385  0.68948850     0.02800
C1537       C  0.51145575  0.90347294  0.70532325     0.27600
C1538       C  0.49320984  0.89006226  0.71971628    -0.25000
N1539       N  0.50940977  0.82220473  0.70345784    -0.82300
H1540       H  0.54049333  0.85271268  0.67667628     0.13400
C1541       C  0.54764862  0.90334108  0.67348480     0.02800
N1542       N  0.51282333  0.93084737  0.70677395    -0.80900
H1543       H  0.47981629  0.90060868  0.73146644     0.18200
C1544       C  0.53938167  0.92175337  0.65586479    -0.25800
C1545       C  0.55693334  0.93521315  0.64076805     0.36300
C1546       C  0.58325446  0.93020928  0.64319664    -0.19800
C1547       C  0.59150204  0.91131222  0.66028932    -0.25000
C1548       C  0.57398651  0.89793114  0.67561117     0.27600
H1549       H  0.51915916  0.92564179  0.65376094     0.13400
N1550       N  0.54794669  0.95361361  0.62265543    -0.82300
H1551       H  0.61175971  0.90750874  0.66218422     0.18200
N1552       N  0.58285475  0.87922809  0.69362875    -0.80900
H1553       H  0.53552134  0.94438675  0.61004735     0.33900
H1554       H  0.53751145  0.96746770  0.63258521     0.38400
H1555       H  0.60271660  0.87743293  0.69270070     0.33800
H1556       H  0.57854280  0.88594258  0.71196017     0.30500
H1557       H  0.49884230  0.93795605  0.71916543     0.33800
H1558       H  0.53049086  0.93560847  0.71476309     0.30500
H1559       H  0.51434961  0.81611418  0.72185603     0.38400
H1560       H  0.52349325  0.81519677  0.69117674     0.33900
C1561       C  0.48838212  0.79011106  0.80079661    -0.19900
C1562       C  0.48996873  0.76310408  0.80065879     0.36400
C1563       C  0.50817196  0.75091061  0.81615045    -0.25800
C1564       C  0.52502144  0.76501684  0.83136960     0.02800
C1565       C  0.52346231  0.79179799  0.83176952     0.27600
C1566       C  0.50503675  0.80409376  0.81661269    -0.25000
N1567       N  0.47287630  0.74805459  0.78529281    -0.82300
H1568       H  0.50960968  0.73027378  0.81600903     0.13400
C1569       C  0.54507057  0.75134750  0.84572244     0.02800
N1570       N  0.54092816  0.80637233  0.84715772    -0.80900
H1571       H  0.50397049  0.82474146  0.81684230     0.18200
C1572       C  0.56876671  0.74722383  0.83400793    -0.25800
C1573       C  0.58781466  0.73274056  0.84612890     0.36300
C1574       C  0.58276994  0.72176189  0.87030080    -0.19800
C1575       C  0.55917289  0.72662791  0.88226032    -0.25000
C1576       C  0.54030300  0.74140722  0.87023251     0.27600
H1577       H  0.57225731  0.75513387  0.81519493     0.13400
N1578       N  0.61219008  0.72913454  0.83398525    -0.82300
H1579       H  0.55510868  0.71817754  0.90071255     0.18200
N1580       N  0.51606758  0.74575518  0.88241583    -0.80900
H1581       H  0.61270053  0.73832191  0.81625675     0.33900
H1582       H  0.62598635  0.73793108  0.84543158     0.42000
H1583       H  0.51550024  0.73681087  0.90030114     0.33800
H1584       H  0.51442943  0.76530364  0.88586317     0.30500
H1585       H  0.53752404  0.82587870  0.84502537     0.33800
H1586       H  0.53724551  0.80203242  0.86633582     0.30500
H1587       H  0.47848737  0.75022967  0.76623121     0.38400
H1588       H  0.47499728  0.72865585  0.78938934     0.33900
C1589       C  0.38340923  0.86543639  0.71689012    -0.19900
C1590       C  0.38209724  0.89237038  0.71626346     0.36400
C1591       C  0.36250053  0.90428793  0.70230003    -0.25800
C1592       C  0.34418090  0.88991285  0.68897452     0.02800
C1593       C  0.34580093  0.86304011  0.68917202     0.27600
C1594       C  0.36553944  0.85111258  0.70289474    -0.25000
N1595       N  0.40080012  0.90752862  0.72949692    -0.82300
H1596       H  0.36149304  0.92493672  0.70174503     0.13400
C1597       C  0.32315011  0.90326213  0.67531111     0.02800
N1598       N  0.32705971  0.84796006  0.67591339    -0.80900
H1599       H  0.36649609  0.83046002  0.70330194     0.18200
C1600       C  0.31941064  0.89891059  0.64906741    -0.25800
C1601       C  0.29976601  0.91134891  0.63558790     0.36300
C1602       C  0.28356604  0.92845939  0.64867839    -0.19800
C1603       C  0.28736668  0.93282480  0.67486887    -0.25000
C1604       C  0.30682599  0.92028998  0.68836320     0.27600
H1605       H  0.33212567  0.88604105  0.63901359     0.13400
N1606       N  0.29656811  0.90710428  0.60863300    -0.82300
H1607       H  0.27489791  0.94598364  0.68487215     0.18200
N1608       N  0.30994056  0.92459564  0.71532570    -0.80900
H1609       H  0.30999524  0.89393636  0.60194201     0.33900
H1610       H  0.30035371  0.92434192  0.59929994     0.38400
H1611       H  0.29650045  0.93779424  0.72198053     0.33800
H1612       H  0.30612128  0.90738844  0.72466626     0.30500
H1613       H  0.33101272  0.82850991  0.67785832     0.33800
H1614       H  0.30941102  0.85112067  0.68474740     0.30500
H1615       H  0.41850353  0.90417097  0.72083814     0.38400
H1616       H  0.39697406  0.92697421  0.72725692     0.33900
C1617       C  0.70780169  0.54682258  0.80052280    -0.19900
C1618       C  0.71264890  0.55293465  0.82646936     0.36400
C1619       C  0.69791528  0.57180638  0.83858756    -0.25800
C1620       C  0.67819794  0.58437637  0.82563245     0.02800
C1621       C  0.67267992  0.57778102  0.80015179     0.27600
C1622       C  0.68756058  0.55915088  0.78782963    -0.25000
N1623       N  0.73239565  0.54003746  0.84051266    -0.82300
H1624       H  0.70190689  0.57691239  0.85826165     0.13400
C1625       C  0.66392213  0.60483680  0.83896733     0.02800
N1626       N  0.65203337  0.59010484  0.78691998    -0.80900
H1627       H  0.68348204  0.55452525  0.76806919     0.18200
C1628       C  0.66620028  0.63006747  0.83035827    -0.25800
C1629       C  0.65450723  0.65027460  0.84362574     0.36300
C1630       C  0.63973779  0.64497501  0.86562557    -0.19800
C1631       C  0.63718412  0.61959914  0.87392059    -0.25000
C1632       C  0.64918648  0.59949048  0.86084892     0.27600
H1633       H  0.67781548  0.63404395  0.81367660     0.13400
N1634       N  0.65820288  0.67616152  0.83529428    -0.82300
H1635       H  0.62572673  0.61545693  0.89066462     0.18200
N1636       N  0.64656958  0.57365405  0.86969573    -0.80900
H1637       H  0.66951221  0.67672934  0.81884032     0.33900
H1638       H  0.66839797  0.68571777  0.84958789     0.38400
H1639       H  0.63528047  0.57297505  0.88617940     0.33800
H1640       H  0.63678861  0.56341608  0.85561044     0.30500
H1641       H  0.65051940  0.58316740  0.76823514     0.33800
H1642       H  0.63507714  0.58515430  0.79624818     0.30500
H1643       H  0.72688582  0.52095387  0.84238483     0.38400
H1644       H  0.73384379  0.54733943  0.85907159     0.33900
C1645       C  0.79506996  0.44838194  0.72014428    -0.19900
C1646       C  0.82183172  0.44635939  0.72356260     0.36400
C1647       C  0.83578220  0.42907588  0.70843418    -0.25800
C1648       C  0.82364710  0.41414243  0.68980717     0.02800
C1649       C  0.79714007  0.41649494  0.68600718     0.27600
C1650       C  0.78312283  0.43343881  0.70128914    -0.25000
N1651       N  0.83483041  0.46201993  0.74201299    -0.82300
H1652       H  0.85622567  0.42723043  0.71111235     0.13400
C1653       C  0.83877538  0.39594667  0.67435646     0.02800
N1654       N  0.78460940  0.40174280  0.66650146    -0.80900
H1655       H  0.76268115  0.43491599  0.69843900     0.18200
C1656       C  0.83308901  0.36981191  0.67581875    -0.25800
C1657       C  0.84615830  0.35208220  0.66062349     0.36300
C1658       C  0.86517748  0.36057167  0.64367416    -0.19800
C1659       C  0.87132382  0.38663370  0.64262725    -0.25000
C1660       C  0.85818768  0.40448618  0.65773452     0.27600
H1661       H  0.81838394  0.36317734  0.68880643     0.13400
N1662       N  0.84045986  0.32543916  0.66278215    -0.82300
H1663       H  0.88605556  0.39308276  0.62957497     0.18200
N1664       N  0.86414833  0.43121688  0.65597041    -0.80900
H1665       H  0.84350880  0.31998272  0.68173364     0.33900
H1666       H  0.82106761  0.32287852  0.65866913     0.38400
H1667       H  0.87897734  0.43425595  0.64295830     0.33800
H1668       H  0.84806534  0.44050082  0.64859316     0.30500
H1669       H  0.76503454  0.40557050  0.66624946     0.33800
H1670       H  0.79184348  0.40769042  0.64882686     0.30500
H1671       H  0.83326441  0.48097156  0.73595702     0.38400
H1672       H  0.85434750  0.45780466  0.74234428     0.33900
C1673       C  0.71545375  0.43912622  0.79632198    -0.19900
C1674       C  0.70278202  0.41930411  0.78300249     0.36400
C1675       C  0.68939087  0.40061431  0.79687181    -0.25800
C1676       C  0.68825424  0.40147609  0.82361135     0.02800
C1677       C  0.70106015  0.42105855  0.83691395     0.27600
C1678       C  0.71474326  0.43953094  0.82314371    -0.25000
N1679       N  0.70425541  0.41763907  0.75560943    -0.82300
H1680       H  0.67978227  0.38527234  0.78682918     0.13400
C1681       C  0.67390800  0.38157410  0.83763528     0.02800
N1682       N  0.69981554  0.42223228  0.86434586    -0.80900
H1683       H  0.72434976  0.45473953  0.83339087     0.18200
C1684       C  0.68718764  0.36553774  0.85443480    -0.25800
C1685       C  0.67424981  0.34719272  0.86902733     0.36300
C1686       C  0.64749413  0.34513057  0.86696847    -0.19800
C1687       C  0.63424581  0.36058910  0.84956583    -0.25000
C1688       C  0.64722719  0.37893109  0.83487955     0.27600
H1689       H  0.70773639  0.36740173  0.85613070     0.13400
N1690       N  0.68812883  0.33047687  0.88579319    -0.82300
H1691       H  0.61369706  0.35869912  0.84789514     0.18200
N1692       N  0.63344950  0.39514150  0.81754534    -0.80900
H1693       H  0.70768528  0.33447193  0.88508364     0.33900
H1694       H  0.68586270  0.31186029  0.87893585     0.38400
H1695       H  0.61400193  0.39064869  0.81770387     0.33800
H1696       H  0.63505058  0.41388796  0.82426438     0.30500
H1697       H  0.71036455  0.43774889  0.87122338     0.33800
H1698       H  0.68079432  0.42555250  0.86941426     0.30500
H1699       H  0.69291701  0.43221543  0.74808347     0.38400
H1700       H  0.69613165  0.40057077  0.74918155     0.33900
C1701       C  0.78703358  0.55498833  0.72505236    -0.19900
C1702       C  0.80115060  0.57387267  0.73822052     0.36400
C1703       C  0.81515393  0.59201184  0.72420050    -0.25800
C1704       C  0.81505865  0.59172184  0.69742276     0.02800
C1705       C  0.80011610  0.57362854  0.68428078     0.27600
C1706       C  0.78626751  0.55541410  0.69822351    -0.25000
N1707       N  0.80108509  0.57467676  0.76568380    -0.82300
H1708       H  0.82642991  0.60625383  0.73412711     0.13400
C1709       C  0.83115862  0.61004438  0.68318984     0.02800
N1710       N  0.79929856  0.57375016  0.65681490    -0.80900
H1711       H  0.77530678  0.54109855  0.68805410     0.18200
C1712       C  0.85231992  0.60087299  0.66957530    -0.25800
C1713       C  0.86733022  0.61733212  0.65463336     0.36300
C1714       C  0.86109451  0.64353129  0.65354956    -0.19800
C1715       C  0.84012673  0.65273134  0.66754836    -0.25000
C1716       C  0.82504946  0.63619776  0.68237245     0.27600
H1717       H  0.85680840  0.58069412  0.67027820     0.13400
N1718       N  0.88839279  0.60744312  0.64001401    -0.82300
H1719       H  0.83533253  0.67282583  0.66658513     0.18200
N1720       N  0.80333250  0.64571897  0.69623016    -0.80900
H1721       H  0.89045605  0.58783878  0.64304792     0.33900
H1722       H  0.88398863  0.60977693  0.62066070     0.38400
H1723       H  0.80151490  0.66540873  0.69368820     0.33800
H1724       H  0.78697786  0.63739730  0.68829874     0.30500
H1725       H  0.78753163  0.55908360  0.65006345     0.33800
H1726       H  0.79083939  0.59089499  0.65113011     0.30500
H1727       H  0.78240486  0.57868060  0.77155489     0.38400
H1728       H  0.81247068  0.58967775  0.77231168     0.33900
loop_ 
_geom_bond_atom_site_label_1 
_geom_bond_atom_site_label_2 
_geom_bond_distance 
_geom_bond_site_symmetry_2 
_ccdc_geom_bond_type 
O1           Ni9   1.919       .  S
O1           C11   1.282       .  A
O2           Ni9   1.917       .  S
O2           C12   1.281       .  A
O3           Ni9   1.915       .  S
O3           C13   1.281       .  A
O4           Ni9   1.919       .  S
O4           C14   1.282       .  A
O5          Ni10   1.911       .  S
O5           C14   1.281       .  A
O6          Ni10   1.917       .  S
O6           C13   1.282       .  A
O7          Ni10   1.914       .  S
O7           C12   1.281       .  A
O8          Ni10   1.913       .  S
O8           C11   1.280       .  A
Ni9         Ni10   2.385       .  S
C11        C1673   1.480       .  S
C12        C1701   1.480       .  S
C13        C1617   1.489       .  S
C14        C1645   1.484       .  S
O15         Ni23   1.920       .  S
O15          C25   1.282       .  A
O16         Ni23   1.919       .  S
O16          C26   1.282       .  A
O17         Ni23   1.918       .  S
O17          C27   1.281       .  A
O18         Ni23   1.915       .  S
O18          C28   1.281       .  A
O19         Ni24   1.916       .  S
O19          C28   1.281       .  A
O20         Ni24   1.914       .  S
O20          C27   1.282       .  A
O21         Ni24   1.917       .  S
O21          C26   1.281       .  A
O22         Ni24   1.916       .  S
O22          C25   1.280       .  A
Ni23        Ni24   2.384       .  S
C25        C1561   1.486       .  S
C26        C1589   1.483       .  S
C27        C1505   1.492       .  S
C28        C1533   1.481       .  S
O29         Ni37   1.912       .  S
O29          C39   1.281       .  A
O30         Ni37   1.914       .  S
O30          C40   1.281       .  A
O31         Ni37   1.913       .  S
O31          C41   1.281       .  A
O32         Ni37   1.912       .  S
O32          C42   1.281       .  A
O33         Ni38   1.918       .  S
O33          C42   1.281       .  A
O34         Ni38   1.918       .  S
O34          C41   1.282       .  A
O35         Ni38   1.914       .  S
O35          C40   1.281       .  A
O36         Ni38   1.917       .  S
O36          C39   1.281       .  A
Ni37        Ni38   2.385       .  S
C39        C1421   1.486       .  S
C40        C1393   1.481       .  S
C41        C1477   1.479       .  S
C42        C1449   1.486       .  S
C43        C1378   1.487       .  S
C43          C44   1.406       .  A
C43          C48   1.401       .  A
C44          C45   1.413       .  A
C44          H49   1.080       .  S
C45          C54   1.507   1_565  S
C45          C46   1.412       .  A
C46          C47   1.401       .  A
C46          H50   1.080       .  S
C47        C1337   1.479       .  S
C47          C48   1.397       .  A
C48          H51   1.084       .  S
C52        C1322   1.480       .  S
C52          C53   1.404       .  A
C52          C57   1.397       .  A
C53          C54   1.415       .  A
C53          H58   1.080       .  S
C54          C55   1.414       .  A
C55          C56   1.403       .  A
C55          H59   1.079       .  S
C56        C1281   1.481       .  S
C56          C57   1.397       .  A
C57          H60   1.084       .  S
O61         Ni69   1.925       .  S
O61          C71   1.283       .  A
O62         Ni69   1.923       .  S
O62          C72   1.283       .  A
O63         Ni69   1.918       .  S
O63          C73   1.282       .  A
O64         Ni69   1.916       .  S
O64          C74   1.282       .  A
O65         Ni70   1.921       .  S
O65          C74   1.282       .  A
O66         Ni70   1.921       .  S
O66          C73   1.282       .  A
O67         Ni70   1.908       .  S
O67          C72   1.279       .  A
O68         Ni70   1.908       .  S
O68          C71   1.280       .  A
Ni69        Ni70   2.385       .  S
C71        C1309   1.481       .  S
C72        C1225   1.478       .  S
C73        C1266   1.492       .  S
C74        C1197   1.490       .  S
C75        C1182   1.476       .  S
C75          C76   1.402       .  A
C75          C80   1.398       .  A
C76          C77   1.410       .  A
C76          H81   1.080       .  S
C77          C86   1.502   1_565  S
C77          C78   1.412       .  A
C78          C79   1.400       .  A
C78          H82   1.080       .  S
C79        C1406   1.478       .  S
C79          C80   1.398       .  A
C80          H83   1.084       .  S
C84        C1253   1.487       .  S
C84          C85   1.405       .  A
C84          C89   1.403       .  A
C85          C86   1.412       .  A
C85          H90   1.080       .  S
C86          C87   1.409       .  A
C87          C88   1.399       .  A
C87          H91   1.079       .  S
C88        C1154   1.483       .  S
C88          C89   1.401       .  A
C89          H92   1.084       .  S
O93        Ni101   1.920       .  S
O93         C103   1.283       .  A
O94        Ni101   1.922       .  S
O94         C104   1.283       .  A
O95        Ni101   1.913       .  S
O95         C105   1.280       .  A
O96        Ni101   1.915       .  S
O96         C106   1.281       .  A
O97        Ni102   1.922       .  S
O97         C106   1.282       .  A
O98        Ni102   1.921       .  S
O98         C105   1.283       .  A
O99        Ni102   1.907       .  S
O99         C104   1.279       .  A
O100       Ni102   1.909       .  S
O100        C103   1.280       .  A
Ni101      Ni102   2.384       .  S
C103       C1113   1.485       .  S
C104       C1057   1.489       .  S
C105       C1141   1.483       .  S
C106       C1085   1.488       .  S
C107       C1546   1.481       .  S
C107        C108   1.399       .  A
C107        C112   1.403       .  A
C108        C109   1.399       .  A
C108        H113   1.084       .  S
C109       C1462   1.478       .  S
C109        C110   1.401       .  A
C110        C111   1.410       .  A
C110        H114   1.080       .  S
C111        C118   1.503   1_565  S
C111        C112   1.413       .  A
C112        H115   1.079       .  S
C116       C1029   1.477       .  S
C116        C117   1.400       .  A
C116        C121   1.399       .  A
C117        C118   1.409       .  A
C117        H122   1.080       .  S
C118        C119   1.412       .  A
C119        C120   1.405       .  A
C119        H123   1.080       .  S
C120       C1126   1.483       .  S
C120        C121   1.401       .  A
C121        H124   1.084       .  S
C125       C1014   1.484       .  S
C125        C126   1.406       .  A
C125        C130   1.402       .  A
C126        C127   1.414       .  A
C126        H131   1.080       .  S
C127        C136   1.508   1_565  S
C127        C128   1.411       .  A
C128        C129   1.401       .  A
C128        H132   1.080       .  S
C129       C1602   1.484       .  S
C129        C130   1.402       .  A
C130        H133   1.084       .  S
C134        C986   1.484       .  S
C134        C135   1.404       .  A
C134        C139   1.397       .  A
C135        C136   1.415       .  A
C135        H140   1.080       .  S
C136        C137   1.412       .  A
C137        C138   1.403       .  A
C137        H141   1.080       .  S
C138        C945   1.478       .  S
C138        C139   1.397       .  A
C139        H142   1.084       .  S
O143       Ni151   1.916       .  S
O143        C153   1.281       .  A
O144       Ni151   1.916       .  S
O144        C154   1.280       .  A
O145       Ni151   1.919       .  S
O145        C155   1.283       .  A
O146       Ni151   1.913       .  S
O146        C156   1.282       .  A
O147       Ni152   1.911       .  S
O147        C156   1.280       .  A
O148       Ni152   1.912       .  S
O148        C155   1.280       .  A
O149       Ni152   1.912       .  S
O149        C154   1.281       .  A
O150       Ni152   1.910       .  S
O150        C153   1.280       .  A
Ni151      Ni152   2.384       .  S
C153       C1042   1.481       .  S
C154        C917   1.479       .  S
C155        C973   1.487       .  S
C156        C889   1.487       .  S
O157       Ni165   1.915       .  S
O157        C167   1.281       .  A
O158       Ni165   1.912       .  S
O158        C168   1.280       .  A
O159       Ni165   1.916       .  S
O159        C169   1.281       .  A
O160       Ni165   1.917       .  S
O160        C170   1.282       .  A
O161       Ni166   1.907       .  S
O161        C170   1.279       .  A
O162       Ni166   1.906       .  S
O162        C169   1.279       .  A
O163       Ni166   1.916       .  S
O163        C168   1.282       .  A
O164       Ni166   1.915       .  S
O164        C167   1.282       .  A
Ni165      Ni166   2.386       .  S
C167       C1294   1.483       .  S
C168        C833   1.489       .  S
C169        C958   1.476       .  S
C170        C861   1.478       .  S
C171       C1686   1.476       .  S
C171        C172   1.403       .  A
C171        C176   1.396       .  A
C172        C173   1.411       .  A
C172        H177   1.081       .  S
C173        C182   1.501       .  S
C173        C174   1.410       .  A
C174        C175   1.402       .  A
C174        H178   1.081       .  S
C175        C902   1.478       .  S
C175        C176   1.398       .  A
C176        H179   1.084       .  S
C180       C1238   1.483   1_556  S
C180        C181   1.404       .  A
C180        C185   1.400   1_556  A
C181        C182   1.411       .  A
C181        H186   1.081       .  S
C182        C183   1.409       .  A
C183        C184   1.402       .  A
C183        H187   1.081       .  S
C184        C805   1.475   1_556  S
C184        C185   1.399   1_556  A
C185        H188   1.084       .  S
O189       Ni197   1.923       .  S
O189        C199   1.282       .  A
O190       Ni197   1.923       .  S
O190        C200   1.282       .  A
O191       Ni197   1.914       .  S
O191        C201   1.280       .  A
O192       Ni197   1.915       .  S
O192        C202   1.281       .  A
O193       Ni198   1.908       .  S
O193        C202   1.280       .  A
O194       Ni198   1.906       .  S
O194        C201   1.281       .  A
O195       Ni198   1.906       .  S
O195        C200   1.280       .  A
O196       Ni198   1.907       .  S
O196        C199   1.280       .  A
Ni197      Ni198   2.385       .  S
C199        C762   1.487       .  S
C200        C777   1.479       .  S
C201        C734   1.482       .  S
C202        C818   1.482       .  S
C203       C1630   1.487       .  S
C203        C204   1.402       .  A
C203        C208   1.399       .  A
C204        C205   1.412       .  A
C204        H209   1.079       .  S
C205        C216   1.506       .  S
C205        C206   1.412       .  A
C206        C207   1.406       .  A
C206        H210   1.080       .  S
C207       C1574   1.489       .  S
C207        C208   1.403       .  A
C208        H211   1.083       .  S
C212        C693   1.488   1_556  S
C212        C213   1.403   1_556  A
C212        C217   1.407       .  A
C213        C214   1.400   1_554  A
C213        H218   1.084       .  S
C214        C790   1.483   1_556  S
C214        C215   1.401       .  A
C215        C216   1.410       .  A
C215        H219   1.080       .  S
C216        C217   1.413       .  A
C217        H220   1.080       .  S
C221       C1518   1.488       .  S
C221        C222   1.408       .  A
C221        C226   1.402       .  A
C222        C223   1.415       .  A
C222        H227   1.080       .  S
C223        C232   1.508       .  S
C223        C224   1.413       .  A
C224        C225   1.399       .  A
C224        H228   1.079       .  S
C225        C678   1.477       .  S
C225        C226   1.396       .  A
C226        H229   1.083       .  S
C230        C637   1.477   1_556  S
C230        C231   1.404       .  A
C230        C235   1.398   1_556  A
C231        C232   1.413       .  A
C231        H236   1.080       .  S
C232        C233   1.414       .  A
C233        C234   1.404       .  A
C233        H237   1.079       .  S
C234        C609   1.482   1_556  S
C234        C235   1.397   1_556  A
C235        H238   1.084       .  S
O239       Ni247   1.916       .  S
O239        C249   1.282       .  A
O240       Ni247   1.914       .  S
O240        C250   1.282       .  A
O241       Ni247   1.917       .  S
O241        C251   1.280       .  A
O242       Ni247   1.917       .  S
O242        C252   1.281       .  A
O243       Ni248   1.915       .  S
O243        C252   1.282       .  A
O244       Ni248   1.914       .  S
O244        C251   1.279       .  A
O245       Ni248   1.915       .  S
O245        C250   1.281       .  A
O246       Ni248   1.910       .  S
O246        C249   1.279       .  A
Ni247      Ni248   2.386       .  S
C249       C1169   1.478       .  S
C250        C650   1.487       .  S
C251       C1365   1.467       .  S
C252        C706   1.491       .  S
C253        C930   1.481       .  S
C253        C254   1.401       .  A
C253        C258   1.399       .  A
C254        C255   1.411       .  A
C254        H259   1.080       .  S
C255        C266   1.504       .  S
C255        C256   1.414       .  A
C256        C257   1.406       .  A
C256        H260   1.080       .  S
C257        C594   1.491       .  S
C257        C258   1.401       .  A
C258        H261   1.084       .  S
C262        C553   1.481       .  S
C262        C263   1.400       .  A
C262        C267   1.402       .  A
C263        C264   1.400       .  A
C263        H268   1.084   1_556  S
C264       C1210   1.484   1_556  S
C264        C265   1.405       .  A
C265        C266   1.413       .  A
C265        H269   1.079       .  S
C266        C267   1.410       .  A
C267        H270   1.081       .  S
C271       C1658   1.476       .  S
C271        C272   1.399       .  A
C271        C276   1.400       .  A
C272        C273   1.409       .  A
C272        H277   1.080       .  S
C273        C282   1.504       .  S
C273        C274   1.416       .  A
C274        C275   1.404       .  A
C274        H278   1.080       .  S
C275       C1098   1.482       .  S
C275        C276   1.400       .  A
C276        H279   1.084       .  S
C280        C846   1.482   1_655  S
C280        C281   1.402       .  A
C280        C285   1.402   1_655  A
C281        C282   1.408       .  A
C281        H286   1.080       .  S
C282        C283   1.415       .  A
C283        C284   1.404       .  A
C283        H287   1.080       .  S
C284        C525   1.486   1_655  S
C284        C285   1.401   1_655  A
C285        H288   1.084       .  S
O289       Ni297   1.913       .  S
O289        C299   1.279       .  A
O290       Ni297   1.912       .  S
O290        C300   1.280       .  A
O291       Ni297   1.920       .  S
O291        C301   1.282       .  A
O292       Ni297   1.925       .  S
O292        C302   1.283       .  A
O293       Ni298   1.914       .  S
O293        C302   1.280       .  A
O294       Ni298   1.918       .  S
O294        C301   1.282       .  A
O295       Ni298   1.916       .  S
O295        C300   1.282       .  A
O296       Ni298   1.918       .  S
O296        C299   1.281       .  A
Ni297      Ni298   2.387       .  S
C299        C581   1.469       .  S
C300        C510   1.481       .  S
C301        C665   1.487       .  S
C302        C538   1.482       .  S
C303       C1714   1.482       .  S
C303        C304   1.405       .  A
C303        C308   1.398       .  A
C304        C305   1.416       .  A
C304        H309   1.078       .  S
C305        C316   1.512       .  S
C305        C306   1.414       .  A
C306        C307   1.401       .  A
C306        H310   1.078       .  S
C307       C1434   1.482       .  S
C307        C308   1.397       .  A
C308        H311   1.084       .  S
C312        C469   1.486       .  S
C312        C313   1.399       .  A
C312        C317   1.403       .  A
C313        C314   1.400       .  A
C313        H318   1.084   1_655  S
C314        C497   1.483   1_655  S
C314        C315   1.405       .  A
C315        C316   1.413       .  A
C315        H319   1.077       .  S
C316        C317   1.414       .  A
C317        H320   1.078       .  S
O321       Ni329   1.921       .  S
O321        C331   1.282       .  A
O322       Ni329   1.918       .  S
O322        C332   1.281       .  A
O323       Ni329   1.912       .  S
O323        C333   1.281       .  A
O324       Ni329   1.912       .  S
O324        C334   1.280       .  A
O325       Ni330   1.919       .  S
O325        C334   1.282       .  A
O326       Ni330   1.918       .  S
O326        C333   1.282       .  A
O327       Ni330   1.915       .  S
O327        C332   1.282       .  A
O328       Ni330   1.919       .  S
O328        C331   1.282       .  A
Ni329      Ni330   2.384       .  S
C331       C1001   1.489       .  S
C332        C441   1.491       .  S
C333       C1350   1.483       .  S
C334        C482   1.484       .  S
C335       C1490   1.482       .  S
C335        C336   1.404       .  A
C335        C340   1.401       .  A
C336        C337   1.410       .  A
C336        H341   1.080       .  S
C337        C348   1.498       .  S
C337        C338   1.406       .  A
C338        C339   1.399       .  A
C338        H342   1.081       .  S
C339        C721   1.478       .  S
C339        C340   1.399       .  A
C340        H343   1.084       .  S
C344        C413   1.475   1_655  S
C344        C345   1.399   1_655  A
C344        C349   1.398       .  A
C345        C346   1.402   1_455  A
C345        H350   1.084       .  S
C346        C454   1.482   1_655  S
C346        C347   1.404       .  A
C347        C348   1.408       .  A
C347        H351   1.081       .  S
C348        C349   1.409       .  A
C349        H352   1.081       .  S
C353       C1070   1.477       .  S
C353        C354   1.397       .  A
C353        C358   1.403       .  A
C354        C355   1.396       .  A
C354        H359   1.084       .  S
C355        C749   1.476       .  S
C355        C356   1.400       .  A
C356        C357   1.412       .  A
C356        H360   1.079       .  S
C357        C364   1.504       .  S
C357        C358   1.413       .  A
C358        H361   1.079       .  S
C362        C385   1.480   1_655  S
C362        C363   1.402       .  A
C362        C367   1.398   1_655  A
C363        C364   1.412       .  A
C363        H368   1.079       .  S
C364        C365   1.411       .  A
C365        C366   1.400       .  A
C365        H369   1.079       .  S
C366        C874   1.473   1_655  S
C366        C367   1.398   1_655  A
C367        H370   1.084       .  S
O371       Ni379   1.907       .  S
O371        C381   1.280       .  A
O372       Ni379   1.906       .  S
O372        C382   1.280       .  A
O373       Ni379   1.911       .  S
O373        C383   1.280       .  A
O374       Ni379   1.908       .  S
O374        C384   1.280       .  A
O375       Ni380   1.913       .  S
O375        C384   1.281       .  A
O376       Ni380   1.919       .  S
O376        C383   1.281       .  A
O377       Ni380   1.922       .  S
O377        C382   1.282       .  A
O378       Ni380   1.926       .  S
O378        C381   1.283       .  A
Ni379      Ni380   2.385       .  S
C381        C622   1.486       .  S
C382        C398   1.487       .  S
C383        C566   1.479       .  S
C384        C426   1.479       .  S
C385        C386   1.412       .  A
C385        C390   1.405   1_455  A
C386        C387   1.405       .  A
C386        N391   1.437       .  S
C387        C388   1.401       .  A
C387        H392   1.084       .  S
C388        C393   1.473       .  S
C388        C389   1.406       .  A
C389        C390   1.401   1_455  A
C389        N394   1.438       .  S
C390        H395   1.084       .  S
N391        H411   1.045       .  S
N391        H412   1.046       .  S
C393        C396   1.400       .  A
C393        C400   1.404       .  A
N394        H409   1.047   1_455  S
N394        H410   1.045       .  S
C396        C397   1.406       .  A
C396        H401   1.084       .  S
C397        C398   1.417       .  A
C397        N402   1.437       .  S
C398        C399   1.409       .  A
C399        C400   1.401       .  A
C399        H403   1.083       .  S
C400        N404   1.438       .  S
N402        H405   1.046       .  S
N402        H406   1.046       .  S
N404        H407   1.047       .  S
N404        H408   1.044       .  S
C413        C414   1.411       .  A
C413        C418   1.401       .  A
C414        C415   1.402       .  A
C414        N419   1.438   1_455  S
C415        C416   1.402       .  A
C415        H420   1.084       .  S
C416        C421   1.480       .  S
C416        C417   1.412       .  A
C417        C418   1.404       .  A
C417        N422   1.438       .  S
C418        H423   1.084       .  S
N419        H439   1.046       .  S
N419        H440   1.045       .  S
C421        C424   1.401       .  A
C421        C428   1.410       .  A
N422        H437   1.045       .  S
N422        H438   1.046       .  S
C424        C425   1.402       .  A
C424        H429   1.084       .  S
C425        C426   1.415       .  A
C425        N430   1.438       .  S
C426        C427   1.406       .  A
C427        C428   1.404       .  A
C427        H431   1.083       .  S
C428        N432   1.438       .  S
N430        H433   1.046       .  S
N430        H434   1.045       .  S
N432        H435   1.046   1_455  S
N432        H436   1.045   1_455  S
C441        C442   1.419       .  A
C441        C446   1.410       .  A
C442        C443   1.406       .  A
C442        N447   1.438       .  S
C443        C444   1.398       .  A
C443        H448   1.084       .  S
C444        C449   1.475       .  S
C444        C445   1.405       .  A
C445        C446   1.404       .  A
C445        N450   1.438       .  S
C446        H451   1.083       .  S
N447        H467   1.046       .  S
N447        H468   1.046       .  S
C449        C452   1.399       .  A
C449        C456   1.408       .  A
N450        H465   1.046       .  S
N450        H466   1.045       .  S
C452        C453   1.402   1_455  A
C452        H457   1.084       .  S
C453        C454   1.414   1_655  A
C453        N458   1.439       .  S
C454        C455   1.405       .  A
C455        C456   1.406       .  A
C455        H459   1.084       .  S
C456        N460   1.437       .  S
N458        H461   1.045       .  S
N458        H462   1.046       .  S
N460        H463   1.046       .  S
N460        H464   1.046       .  S
C469        C470   1.413   1_655  A
C469        C474   1.406       .  A
C470        C471   1.407       .  A
C470        N475   1.437       .  S
C471        C472   1.401       .  A
C471        H476   1.084       .  S
C472        C477   1.476       .  S
C472        C473   1.406       .  A
C473        C474   1.403   1_455  A
C473        N478   1.438   1_455  S
C474        H479   1.084       .  S
N475        H495   1.046       .  S
N475        H496   1.045       .  S
C477        C480   1.399       .  A
C477        C484   1.406       .  A
N478        H493   1.046       .  S
N478        H494   1.045       .  S
C480        C481   1.405       .  A
C480        H485   1.084       .  S
C481        C482   1.417       .  A
C481        N486   1.438       .  S
C482        C483   1.407       .  A
C483        C484   1.405       .  A
C483        H487   1.083       .  S
C484        N488   1.438       .  S
N486        H489   1.046       .  S
N486        H490   1.046       .  S
N488        H491   1.044       .  S
N488        H492   1.047   1_455  S
C497        C498   1.412   1_455  A
C497        C502   1.405       .  A
C498        C499   1.404   1_655  A
C498        N503   1.438       .  S
C499        C500   1.402       .  A
C499        H504   1.084       .  S
C500        C505   1.481       .  S
C500        C501   1.410       .  A
C501        C502   1.404       .  A
C501        N506   1.438       .  S
C502        H507   1.084       .  S
N503        H523   1.045       .  S
N503        H524   1.046       .  S
C505        C508   1.401       .  A
C505        C512   1.409       .  A
N506        H521   1.045       .  S
N506        H522   1.046       .  S
C508        C509   1.404       .  A
C508        H513   1.084       .  S
C509        C510   1.415       .  A
C509        N514   1.438       .  S
C510        C511   1.405       .  A
C511        C512   1.404       .  A
C511        H515   1.083       .  S
C512        N516   1.438       .  S
N514        H517   1.046       .  S
N514        H518   1.045       .  S
N516        H519   1.046       .  S
N516        H520   1.045       .  S
C525        C526   1.413   1_455  A
C525        C530   1.403       .  A
C526        C527   1.406   1_655  A
C526        N531   1.438       .  S
C527        C528   1.404       .  A
C527        H532   1.083       .  S
C528        C533   1.491       .  S
C528        C529   1.413       .  A
C529        C530   1.407       .  A
C529        N534   1.438       .  S
C530        H535   1.084       .  S
N531        H551   1.048       .  S
N531        H552   1.043       .  S
C533        C536   1.405       .  A
C533        C540   1.412       .  A
N534        H549   1.045       .  S
N534        H550   1.046       .  S
C536        C537   1.407       .  A
C536        H541   1.083       .  S
C537        C538   1.411       .  A
C537        N542   1.438       .  S
C538        C539   1.405       .  A
C539        C540   1.407       .  A
C539        H543   1.084       .  S
C540        N544   1.438       .  S
N542        H545   1.046       .  S
N542        H546   1.045       .  S
N544        H547   1.046       .  S
N544        H548   1.046       .  S
C553        C554   1.412   1_556  A
C553        C558   1.404       .  A
C554        C555   1.407       .  A
C554        N559   1.437       .  S
C555        C556   1.402       .  A
C555        H560   1.084       .  S
C556        C561   1.477       .  S
C556        C557   1.407       .  A
C557        C558   1.401   1_554  A
C557        N562   1.438   1_554  S
C558        H563   1.084       .  S
N559        H579   1.046       .  S
N559        H580   1.045       .  S
C561        C564   1.401       .  A
C561        C568   1.407       .  A
N562        H577   1.046       .  S
N562        H578   1.046       .  S
C564        C565   1.403       .  A
C564        H569   1.084       .  S
C565        C566   1.413       .  A
C565        N570   1.438       .  S
C566        C567   1.406       .  A
C567        C568   1.406       .  A
C567        H571   1.084       .  S
C568        N572   1.437       .  S
N570        H573   1.045       .  S
N570        H574   1.047       .  S
N572        H575   1.046       .  S
N572        H576   1.045       .  S
C581        C582   1.410       .  A
C581        C586   1.399       .  A
C582        C583   1.406       .  A
C582        N587   1.438       .  S
C583        C584   1.405       .  A
C583        H588   1.083       .  S
C584        C589   1.487       .  S
C584        C585   1.413       .  A
C585        C586   1.403       .  A
C585        N590   1.438       .  S
C586        H591   1.084       .  S
N587        H607   1.046       .  S
N587        H608   1.046       .  S
C589        C592   1.403       .  A
C589        C596   1.410       .  A
N590        H605   1.046       .  S
N590        H606   1.046       .  S
C592        C593   1.403       .  A
C592        H597   1.084       .  S
C593        C594   1.414       .  A
C593        N598   1.438       .  S
C594        C595   1.408       .  A
C595        C596   1.406       .  A
C595        H599   1.083       .  S
C596        N600   1.438       .  S
N598        H601   1.046       .  S
N598        H602   1.045       .  S
N600        H603   1.045       .  S
N600        H604   1.046       .  S
C609        C610   1.412       .  A
C609        C614   1.403   1_554  A
C610        C611   1.409       .  A
C610        N615   1.437       .  S
C611        C612   1.404       .  A
C611        H616   1.084       .  S
C612        C617   1.483       .  S
C612        C613   1.410       .  A
C613        C614   1.401   1_554  A
C613        N618   1.438       .  S
C614        H619   1.084       .  S
N615        H635   1.046       .  S
N615        H636   1.046       .  S
C617        C620   1.403       .  A
C617        C624   1.408       .  A
N618        H633   1.046   1_554  S
N618        H634   1.045       .  S
C620        C621   1.406       .  A
C620        H625   1.084       .  S
C621        C622   1.414       .  A
C621        N626   1.437       .  S
C622        C623   1.409       .  A
C623        C624   1.404       .  A
C623        H627   1.084       .  S
C624        N628   1.438       .  S
N626        H629   1.046       .  S
N626        H630   1.046       .  S
N628        H631   1.046       .  S
N628        H632   1.045       .  S
C637        C638   1.410       .  A
C637        C642   1.402       .  A
C638        C639   1.404       .  A
C638        N643   1.438       .  S
C639        C640   1.403       .  A
C639        H644   1.084       .  S
C640        C645   1.481       .  S
C640        C641   1.411       .  A
C641        C642   1.404       .  A
C641        N646   1.438       .  S
C642        H647   1.084   1_554  S
N643        H663   1.046       .  S
N643        H664   1.045       .  S
C645        C648   1.401       .  A
C645        C652   1.408       .  A
N646        H661   1.047       .  S
N646        H662   1.044       .  S
C648        C649   1.405       .  A
C648        H653   1.084       .  S
C649        C650   1.417       .  A
C649        N654   1.438       .  S
C650        C651   1.407       .  A
C651        C652   1.404       .  A
C651        H655   1.083       .  S
C652        N656   1.438       .  S
N654        H657   1.045       .  S
N654        H658   1.046       .  S
N656        H659   1.043       .  S
N656        H660   1.048       .  S
C665        C666   1.416       .  A
C665        C670   1.407       .  A
C666        C667   1.407       .  A
C666        N671   1.438       .  S
C667        C668   1.401       .  A
C667        H672   1.084       .  S
C668        C673   1.481       .  S
C668        C669   1.407       .  A
C669        C670   1.406       .  A
C669        N674   1.438       .  S
C670        H675   1.083       .  S
N671        H691   1.045       .  S
N671        H692   1.046       .  S
C673        C676   1.402       .  A
C673        C680   1.410       .  A
N674        H689   1.045       .  S
N674        H690   1.046       .  S
C676        C677   1.405       .  A
C676        H681   1.084       .  S
C677        C678   1.410       .  A
C677        N682   1.438       .  S
C678        C679   1.401       .  A
C679        C680   1.406       .  A
C679        H683   1.084       .  S
C680        N684   1.437       .  S
N682        H685   1.047       .  S
N682        H686   1.045       .  S
N684        H687   1.045       .  S
N684        H688   1.047       .  S
C693        C694   1.415       .  A
C693        C698   1.406       .  A
C694        C695   1.406       .  A
C694        N699   1.438       .  S
C695        C696   1.401       .  A
C695        H700   1.084       .  S
C696        C701   1.479       .  S
C696        C697   1.408       .  A
C697        C698   1.405       .  A
C697        N702   1.438       .  S
C698        H703   1.083   1_554  S
N699        H719   1.046       .  S
N699        H720   1.046       .  S
C701        C704   1.400       .  A
C701        C708   1.405       .  A
N702        H717   1.046   1_554  S
N702        H718   1.046       .  S
C704        C705   1.406       .  A
C704        H709   1.084       .  S
C705        C706   1.420       .  A
C705        N710   1.438       .  S
C706        C707   1.409       .  A
C707        C708   1.404       .  A
C707        H711   1.083       .  S
C708        N712   1.438       .  S
N710        H713   1.046       .  S
N710        H714   1.045       .  S
N712        H715   1.046       .  S
N712        H716   1.045       .  S
C721        C722   1.411       .  A
C721        C726   1.405       .  A
C722        C723   1.405       .  A
C722        N727   1.437       .  S
C723        C724   1.401       .  A
C723        H728   1.084       .  S
C724        C729   1.468       .  S
C724        C725   1.405       .  A
C725        C726   1.398       .  A
C725        N730   1.439       .  S
C726        H731   1.084       .  S
N727        H747   1.045       .  S
N727        H748   1.046       .  S
C729        C732   1.399       .  A
C729        C736   1.404       .  A
N730        H745   1.046       .  S
N730        H746   1.045       .  S
C732        C733   1.405       .  A
C732        H737   1.084       .  S
C733        C734   1.418       .  A
C733        N738   1.438       .  S
C734        C735   1.407       .  A
C735        C736   1.399       .  A
C735        H739   1.083       .  S
C736        N740   1.438       .  S
N738        H741   1.045       .  S
N738        H742   1.046       .  S
N740        H743   1.047       .  S
N740        H744   1.044       .  S
C749        C750   1.408       .  A
C749        C754   1.403       .  A
C750        C751   1.401       .  A
C750        N755   1.432       .  S
C751        C752   1.402       .  A
C751        H756   1.084       .  S
C752        C757   1.476       .  S
C752        C753   1.409       .  A
C753        C754   1.403       .  A
C753        N758   1.438       .  S
C754        H759   1.084       .  S
N755        H775   1.043       .  S
N755        H776   1.048       .  S
C757        C760   1.401       .  A
C757        C764   1.405       .  A
N758        H773   1.044       .  S
N758        H774   1.047       .  S
C760        C761   1.407       .  A
C760        H765   1.084       .  S
C761        C762   1.417       .  A
C761        N766   1.438       .  S
C762        C763   1.408       .  A
C763        C764   1.401       .  A
C763        H767   1.083       .  S
C764        N768   1.438       .  S
N766        H769   1.046       .  S
N766        H770   1.045       .  S
N768        H771   1.046       .  S
N768        H772   1.045       .  S
C777        C778   1.414       .  A
C777        C782   1.405       .  A
C778        C779   1.407       .  A
C778        N783   1.437       .  S
C779        C780   1.401       .  A
C779        H784   1.084       .  S
C780        C785   1.477       .  S
C780        C781   1.407       .  A
C781        C782   1.402       .  A
C781        N786   1.438       .  S
C782        H787   1.084       .  S
N783        H803   1.045       .  S
N783        H804   1.046       .  S
C785        C788   1.399       .  A
C785        C792   1.409       .  A
N786        H801   1.046       .  S
N786        H802   1.046       .  S
C788        C789   1.402   1_554  A
C788        H793   1.084   1_554  S
C789        C790   1.414   1_556  A
C789        N794   1.438       .  S
C790        C791   1.404       .  A
C791        C792   1.407       .  A
C791        H795   1.084       .  S
C792        N796   1.437       .  S
N794        H797   1.046       .  S
N794        H798   1.045       .  S
N796        H799   1.044       .  S
N796        H800   1.047       .  S
C805        C806   1.409       .  A
C805        C810   1.402   1_554  A
C806        C807   1.405       .  A
C806        N811   1.437       .  S
C807        C808   1.403       .  A
C807        H812   1.084       .  S
C808        C813   1.476       .  S
C808        C809   1.409       .  A
C809        C810   1.401   1_554  A
C809        N814   1.438       .  S
C810        H815   1.084       .  S
N811        H831   1.046       .  S
N811        H832   1.045       .  S
C813        C816   1.400       .  A
C813        C820   1.407       .  A
N814        H829   1.045   1_554  S
N814        H830   1.046       .  S
C816        C817   1.403       .  A
C816        H821   1.084       .  S
C817        C818   1.416       .  A
C817        N822   1.438       .  S
C818        C819   1.407       .  A
C819        C820   1.402       .  A
C819        H823   1.083       .  S
C820        N824   1.438       .  S
N822        H825   1.045       .  S
N822        H826   1.046       .  S
N824        H827   1.046       .  S
N824        H828   1.045       .  S
C833        C834   1.420       .  A
C833        C838   1.409       .  A
C834        C835   1.404       .  A
C834        N839   1.438       .  S
C835        C836   1.399       .  A
C835        H840   1.084       .  S
C836        C841   1.478       .  S
C836        C837   1.406       .  A
C837        C838   1.404       .  A
C837        N842   1.438       .  S
C838        H843   1.083       .  S
N839        H859   1.044       .  S
N839        H860   1.047       .  S
C841        C844   1.399       .  A
C841        C848   1.410       .  A
N842        H857   1.045       .  S
N842        H858   1.046       .  S
C844        C845   1.399   1_455  A
C844        H849   1.084       .  S
C845        C846   1.412   1_655  A
C845        N850   1.433       .  S
C846        C847   1.404       .  A
C847        C848   1.406       .  A
C847        H851   1.084       .  S
C848        N852   1.437       .  S
N850        H853   1.045       .  S
N850        H854   1.046       .  S
N852        H855   1.047       .  S
N852        H856   1.045       .  S
C861        C862   1.416       .  A
C861        C866   1.404       .  A
C862        C863   1.403       .  A
C862        N867   1.438       .  S
C863        C864   1.401       .  A
C863        H868   1.084       .  S
C864        C869   1.479       .  S
C864        C865   1.410       .  A
C865        C866   1.403       .  A
C865        N870   1.438       .  S
C866        H871   1.084       .  S
N867        H887   1.046       .  S
N867        H888   1.046       .  S
C869        C872   1.403       .  A
C869        C876   1.411       .  A
N870        H885   1.046       .  S
N870        H886   1.045       .  S
C872        C873   1.403       .  A
C872        H877   1.084       .  S
C873        C874   1.408       .  A
C873        N878   1.438       .  S
C874        C875   1.402       .  A
C875        C876   1.403       .  A
C875        H879   1.084   1_455  S
C876        N880   1.438       .  S
N878        H881   1.046       .  S
N878        H882   1.046       .  S
N880        H883   1.046       .  S
N880        H884   1.045       .  S
C889        C890   1.420       .  A
C889        C894   1.409       .  A
C890        C891   1.404       .  A
C890        N895   1.438       .  S
C891        C892   1.398       .  A
C891        H896   1.084       .  S
C892        C897   1.471       .  S
C892        C893   1.403       .  A
C893        C894   1.401       .  A
C893        N898   1.438       .  S
C894        H899   1.083       .  S
N895        H915   1.045       .  S
N895        H916   1.046       .  S
C897        C900   1.399       .  A
C897        C904   1.407       .  A
N898        H913   1.047       .  S
N898        H914   1.044       .  S
C900        C901   1.400       .  A
C900        H905   1.084       .  S
C901        C902   1.413       .  A
C901        N906   1.439       .  S
C902        C903   1.405       .  A
C903        C904   1.404       .  A
C903        H907   1.084       .  S
C904        N908   1.437       .  S
N906        H909   1.045       .  S
N906        H910   1.046       .  S
N908        H911   1.046       .  S
N908        H912   1.045       .  S
C917        C918   1.414       .  A
C917        C922   1.403       .  A
C918        C919   1.407       .  A
C918        N923   1.438       .  S
C919        C920   1.403       .  A
C919        H924   1.084       .  S
C920        C925   1.481       .  S
C920        C921   1.409       .  A
C921        C922   1.401       .  A
C921        N926   1.438       .  S
C922        H927   1.084       .  S
N923        H943   1.044       .  S
N923        H944   1.047       .  S
C925        C928   1.401       .  A
C925        C932   1.411       .  A
N926        H941   1.046       .  S
N926        H942   1.045       .  S
C928        C929   1.399       .  A
C928        H933   1.084       .  S
C929        C930   1.413       .  A
C929        N934   1.439       .  S
C930        C931   1.404       .  A
C931        C932   1.408       .  A
C931        H935   1.084       .  S
C932        N936   1.437       .  S
N934        H937   1.045       .  S
N934        H938   1.046       .  S
N936        H939   1.045       .  S
N936        H940   1.046       .  S
C945        C946   1.409       .  A
C945        C950   1.403       .  A
C946        C947   1.399       .  A
C946        N951   1.432       .  S
C947        C948   1.401       .  A
C947        H952   1.084       .  S
C948        C953   1.478       .  S
C948        C949   1.411       .  A
C949        C950   1.405       .  A
C949        N954   1.438       .  S
C950        H955   1.084       .  S
N951        H971   1.046       .  S
N951        H972   1.045       .  S
C953        C956   1.401       .  A
C953        C960   1.409       .  A
N954        H969   1.045       .  S
N954        H970   1.046       .  S
C956        C957   1.402       .  A
C956        H961   1.084       .  S
C957        C958   1.413       .  A
C957        N962   1.438       .  S
C958        C959   1.404       .  A
C959        C960   1.404       .  A
C959        H963   1.084       .  S
C960        N964   1.438       .  S
N962        H965   1.046       .  S
N962        H966   1.046       .  S
N964        H967   1.045       .  S
N964        H968   1.046       .  S
C973        C974   1.418       .  A
C973        C978   1.407       .  A
C974        C975   1.405       .  A
C974        N979   1.438       .  S
C975        C976   1.401       .  A
C975        H980   1.084       .  S
C976        C981   1.483       .  S
C976        C977   1.409       .  A
C977        C978   1.405       .  A
C977        N982   1.438       .  S
C978        H983   1.083       .  S
N979        H999   1.047       .  S
N979       H1000   1.044       .  S
C981        C984   1.402       .  A
C981        C988   1.411       .  A
N982        H997   1.046       .  S
N982        H998   1.045       .  S
C984        C985   1.404       .  A
C984        H989   1.084       .  S
C985        C986   1.413       .  A
C985        N990   1.438       .  S
C986        C987   1.404       .  A
C987        C988   1.405       .  A
C987        H991   1.084       .  S
C988        N992   1.438       .  S
N990        H993   1.045       .  S
N990        H994   1.046       .  S
N992        H995   1.045       .  S
N992        H996   1.046       .  S
C1001      C1002   1.416       .  A
C1001      C1006   1.406       .  A
C1002      C1003   1.408       .  A
C1002      N1007   1.438       .  S
C1003      C1004   1.403       .  A
C1003      H1008   1.084       .  S
C1004      C1009   1.490       .  S
C1004      C1005   1.411       .  A
C1005      C1006   1.407       .  A
C1005      N1010   1.438       .  S
C1006      H1011   1.083       .  S
N1007      H1027   1.046       .  S
N1007      H1028   1.045       .  S
C1009      C1012   1.403       .  A
C1009      C1016   1.413       .  A
N1010      H1025   1.046       .  S
N1010      H1026   1.045       .  S
C1012      C1013   1.404       .  A
C1012      H1017   1.084       .  S
C1013      C1014   1.412       .  A
C1013      N1018   1.438       .  S
C1014      C1015   1.404       .  A
C1015      C1016   1.410       .  A
C1015      H1019   1.084       .  S
C1016      N1020   1.437       .  S
N1018      H1021   1.046       .  S
N1018      H1022   1.046       .  S
N1020      H1023   1.046       .  S
N1020      H1024   1.045       .  S
C1029      C1030   1.410       .  A
C1029      C1034   1.403       .  A
C1030      C1031   1.408       .  A
C1030      N1035   1.437       .  S
C1031      C1032   1.403       .  A
C1031      H1036   1.084       .  S
C1032      C1037   1.476       .  S
C1032      C1033   1.407       .  A
C1033      C1034   1.399       .  A
C1033      N1038   1.438       .  S
C1034      H1039   1.084       .  S
N1035      H1055   1.044       .  S
N1035      H1056   1.048       .  S
C1037      C1040   1.400       .  A
C1037      C1044   1.406       .  A
N1038      H1053   1.045       .  S
N1038      H1054   1.047       .  S
C1040      C1041   1.402       .  A
C1040      H1045   1.084       .  S
C1041      C1042   1.415       .  A
C1041      N1046   1.438       .  S
C1042      C1043   1.407       .  A
C1043      C1044   1.405       .  A
C1043      H1047   1.083       .  S
C1044      N1048   1.438       .  S
N1046      H1049   1.047       .  S
N1046      H1050   1.044       .  S
N1048      H1051   1.044       .  S
N1048      H1052   1.047       .  S
C1057      C1058   1.420       .  A
C1057      C1062   1.409       .  A
C1058      C1059   1.403       .  A
C1058      N1063   1.438       .  S
C1059      C1060   1.396       .  A
C1059      H1064   1.084       .  S
C1060      C1065   1.473       .  S
C1060      C1061   1.406       .  A
C1061      C1062   1.405       .  A
C1061      N1066   1.438       .  S
C1062      H1067   1.083       .  S
N1063      H1083   1.046       .  S
N1063      H1084   1.046       .  S
C1065      C1068   1.400       .  A
C1065      C1072   1.407       .  A
N1066      H1081   1.046       .  S
N1066      H1082   1.045       .  S
C1068      C1069   1.404       .  A
C1068      H1073   1.084       .  S
C1069      C1070   1.411       .  A
C1069      N1074   1.437       .  S
C1070      C1071   1.404       .  A
C1071      C1072   1.402       .  A
C1071      H1075   1.084       .  S
C1072      N1076   1.438       .  S
N1074      H1077   1.046       .  S
N1074      H1078   1.046       .  S
N1076      H1079   1.046       .  S
N1076      H1080   1.045       .  S
C1085      C1086   1.416       .  A
C1085      C1090   1.406       .  A
C1086      C1087   1.408       .  A
C1086      N1091   1.438       .  S
C1087      C1088   1.404       .  A
C1087      H1092   1.084       .  S
C1088      C1093   1.489       .  S
C1088      C1089   1.410       .  A
C1089      C1090   1.405       .  A
C1089      N1094   1.438       .  S
C1090      H1095   1.083       .  S
N1091      H1111   1.046       .  S
N1091      H1112   1.045       .  S
C1093      C1096   1.405       .  A
C1093      C1100   1.412       .  A
N1094      H1109   1.046       .  S
N1094      H1110   1.045       .  S
C1096      C1097   1.406       .  A
C1096      H1101   1.084       .  S
C1097      C1098   1.410       .  A
C1097      N1102   1.438       .  S
C1098      C1099   1.403       .  A
C1099      C1100   1.407       .  A
C1099      H1103   1.084       .  S
C1100      N1104   1.438       .  S
N1102      H1105   1.045       .  S
N1102      H1106   1.046       .  S
N1104      H1107   1.046       .  S
N1104      H1108   1.045       .  S
C1113      C1114   1.418       .  A
C1113      C1118   1.407       .  A
C1114      C1115   1.404       .  A
C1114      N1119   1.438       .  S
C1115      C1116   1.399       .  A
C1115      H1120   1.084       .  S
C1116      C1121   1.479       .  S
C1116      C1117   1.407       .  A
C1117      C1118   1.405       .  A
C1117      N1122   1.438       .  S
C1118      H1123   1.083       .  S
N1119      H1139   1.044       .  S
N1119      H1140   1.047       .  S
C1121      C1124   1.401       .  A
C1121      C1128   1.409       .  A
N1122      H1137   1.045       .  S
N1122      H1138   1.047       .  S
C1124      C1125   1.402       .  A
C1124      H1129   1.084       .  S
C1125      C1126   1.410       .  A
C1125      N1130   1.432       .  S
C1126      C1127   1.405       .  A
C1127      C1128   1.405       .  A
C1127      H1131   1.084       .  S
C1128      N1132   1.438       .  S
N1130      H1133   1.046       .  S
N1130      H1134   1.045       .  S
N1132      H1135   1.045       .  S
N1132      H1136   1.046       .  S
C1141      C1142   1.416       .  A
C1141      C1146   1.405       .  A
C1142      C1143   1.405       .  A
C1142      N1147   1.438       .  S
C1143      C1144   1.400       .  A
C1143      H1148   1.084       .  S
C1144      C1149   1.480       .  S
C1144      C1145   1.409       .  A
C1145      C1146   1.405       .  A
C1145      N1150   1.438       .  S
C1146      H1151   1.084       .  S
N1147      H1167   1.046       .  S
N1147      H1168   1.046       .  S
C1149      C1152   1.402       .  A
C1149      C1156   1.409       .  A
N1150      H1165   1.046       .  S
N1150      H1166   1.045       .  S
C1152      C1153   1.405       .  A
C1152      H1157   1.084       .  S
C1153      C1154   1.412       .  A
C1153      N1158   1.438       .  S
C1154      C1155   1.405       .  A
C1155      C1156   1.404       .  A
C1155      H1159   1.084       .  S
C1156      N1160   1.438       .  S
N1158      H1161   1.045       .  S
N1158      H1162   1.046       .  S
N1160      H1163   1.046       .  S
N1160      H1164   1.045       .  S
C1169      C1170   1.415       .  A
C1169      C1174   1.405       .  A
C1170      C1171   1.403       .  A
C1170      N1175   1.438       .  S
C1171      C1172   1.400       .  A
C1171      H1176   1.084       .  S
C1172      C1177   1.478       .  S
C1172      C1173   1.408       .  A
C1173      C1174   1.404       .  A
C1173      N1178   1.438       .  S
C1174      H1179   1.084       .  S
N1175      H1195   1.045       .  S
N1175      H1196   1.046       .  S
C1177      C1180   1.402       .  A
C1177      C1184   1.410       .  A
N1178      H1193   1.046       .  S
N1178      H1194   1.045       .  S
C1180      C1181   1.404       .  A
C1180      H1185   1.084       .  S
C1181      C1182   1.411       .  A
C1181      N1186   1.438       .  S
C1182      C1183   1.401       .  A
C1183      C1184   1.401       .  A
C1183      H1187   1.084       .  S
C1184      N1188   1.438       .  S
N1186      H1189   1.044       .  S
N1186      H1190   1.047       .  S
N1188      H1191   1.045       .  S
N1188      H1192   1.046       .  S
C1197      C1198   1.417       .  A
C1197      C1202   1.408       .  A
C1198      C1199   1.407       .  A
C1198      N1203   1.438       .  S
C1199      C1200   1.401       .  A
C1199      H1204   1.084       .  S
C1200      C1205   1.485       .  S
C1200      C1201   1.409       .  A
C1201      C1202   1.405       .  A
C1201      N1206   1.438       .  S
C1202      H1207   1.083       .  S
N1203      H1223   1.045       .  S
N1203      H1224   1.046       .  S
C1205      C1208   1.403       .  A
C1205      C1212   1.411       .  A
N1206      H1221   1.044   1_554  S
N1206      H1222   1.047       .  S
C1208      C1209   1.403   1_554  A
C1208      H1213   1.084       .  S
C1209      C1210   1.409   1_556  A
C1209      N1214   1.432       .  S
C1210      C1211   1.405       .  A
C1211      C1212   1.407       .  A
C1211      H1215   1.084       .  S
C1212      N1216   1.438       .  S
N1214      H1217   1.046       .  S
N1214      H1218   1.045       .  S
N1216      H1219   1.045       .  S
N1216      H1220   1.046       .  S
C1225      C1226   1.411       .  A
C1225      C1230   1.405       .  A
C1226      C1227   1.404       .  A
C1226      N1231   1.438       .  S
C1227      C1228   1.404       .  A
C1227      H1232   1.084       .  S
C1228      C1233   1.483       .  S
C1228      C1229   1.410       .  A
C1229      C1230   1.405       .  A
C1229      N1234   1.438       .  S
C1230      H1235   1.084       .  S
N1231      H1251   1.044       .  S
N1231      H1252   1.047       .  S
C1233      C1236   1.404       .  A
C1233      C1240   1.410       .  A
N1234      H1249   1.046       .  S
N1234      H1250   1.045       .  S
C1236      C1237   1.407       .  A
C1236      H1241   1.084       .  S
C1237      C1238   1.413       .  A
C1237      N1242   1.438       .  S
C1238      C1239   1.403       .  A
C1239      C1240   1.402       .  A
C1239      H1243   1.084   1_554  S
C1240      N1244   1.438       .  S
N1242      H1245   1.046       .  S
N1242      H1246   1.046       .  S
N1244      H1247   1.046   1_554  S
N1244      H1248   1.045       .  S
C1253      C1254   1.414       .  A
C1253      C1258   1.404       .  A
C1254      C1255   1.405       .  A
C1254      N1259   1.438       .  S
C1255      C1256   1.403       .  A
C1255      H1260   1.084       .  S
C1256      C1261   1.488       .  S
C1256      C1257   1.412       .  A
C1257      C1258   1.407       .  A
C1257      N1262   1.437       .  S
C1258      H1263   1.084       .  S
N1259      H1279   1.047       .  S
N1259      H1280   1.044       .  S
C1261      C1264   1.402       .  A
C1261      C1268   1.409       .  A
N1262      H1277   1.046       .  S
N1262      H1278   1.045       .  S
C1264      C1265   1.406       .  A
C1264      H1269   1.084       .  S
C1265      C1266   1.417       .  A
C1265      N1270   1.438       .  S
C1266      C1267   1.409       .  A
C1267      C1268   1.407       .  A
C1267      H1271   1.083       .  S
C1268      N1272   1.438       .  S
N1270      H1273   1.046       .  S
N1270      H1274   1.045       .  S
N1272      H1275   1.046       .  S
N1272      H1276   1.045       .  S
C1281      C1282   1.409       .  A
C1281      C1286   1.405       .  A
C1282      C1283   1.402       .  A
C1282      N1287   1.432       .  S
C1283      C1284   1.403       .  A
C1283      H1288   1.084       .  S
C1284      C1289   1.480       .  S
C1284      C1285   1.409       .  A
C1285      C1286   1.404       .  A
C1285      N1290   1.438       .  S
C1286      H1291   1.084       .  S
N1287      H1307   1.045       .  S
N1287      H1308   1.046       .  S
C1289      C1292   1.402       .  A
C1289      C1296   1.407       .  A
N1290      H1305   1.046       .  S
N1290      H1306   1.045       .  S
C1292      C1293   1.406       .  A
C1292      H1297   1.084       .  S
C1293      C1294   1.416       .  A
C1293      N1298   1.438       .  S
C1294      C1295   1.406       .  A
C1295      C1296   1.403       .  A
C1295      H1299   1.083       .  S
C1296      N1300   1.438       .  S
N1298      H1301   1.046       .  S
N1298      H1302   1.045       .  S
N1300      H1303   1.046       .  S
N1300      H1304   1.045       .  S
C1309      C1310   1.414       .  A
C1309      C1314   1.405       .  A
C1310      C1311   1.408       .  A
C1310      N1315   1.438       .  S
C1311      C1312   1.403       .  A
C1311      H1316   1.084       .  S
C1312      C1317   1.481       .  S
C1312      C1313   1.408       .  A
C1313      C1314   1.403       .  A
C1313      N1318   1.438       .  S
C1314      H1319   1.084       .  S
N1315      H1335   1.045       .  S
N1315      H1336   1.046       .  S
C1317      C1320   1.402       .  A
C1317      C1324   1.410       .  A
N1318      H1333   1.046       .  S
N1318      H1334   1.045       .  S
C1320      C1321   1.403       .  A
C1320      H1325   1.084       .  S
C1321      C1322   1.412       .  A
C1321      N1326   1.438       .  S
C1322      C1323   1.403       .  A
C1323      C1324   1.407       .  A
C1323      H1327   1.084       .  S
C1324      N1328   1.437       .  S
N1326      H1329   1.045       .  S
N1326      H1330   1.046       .  S
N1328      H1331   1.045       .  S
N1328      H1332   1.046       .  S
C1337      C1338   1.412       .  A
C1337      C1342   1.404       .  A
C1338      C1339   1.402       .  A
C1338      N1343   1.438       .  S
C1339      C1340   1.400       .  A
C1339      H1344   1.084       .  S
C1340      C1345   1.478       .  S
C1340      C1341   1.410       .  A
C1341      C1342   1.407       .  A
C1341      N1346   1.437       .  S
C1342      H1347   1.084       .  S
N1343      H1363   1.046       .  S
N1343      H1364   1.045       .  S
C1345      C1348   1.400       .  A
C1345      C1352   1.408       .  A
N1346      H1361   1.047       .  S
N1346      H1362   1.045       .  S
C1348      C1349   1.406       .  A
C1348      H1353   1.084       .  S
C1349      C1350   1.416       .  A
C1349      N1354   1.438       .  S
C1350      C1351   1.405       .  A
C1351      C1352   1.403       .  A
C1351      H1355   1.083       .  S
C1352      N1356   1.438       .  S
N1354      H1357   1.047       .  S
N1354      H1358   1.045       .  S
N1356      H1359   1.045       .  S
N1356      H1360   1.046       .  S
C1365      C1366   1.409       .  A
C1365      C1370   1.399       .  A
C1366      C1367   1.405       .  A
C1366      N1371   1.438       .  S
C1367      C1368   1.403       .  A
C1367      H1372   1.084       .  S
C1368      C1373   1.482       .  S
C1368      C1369   1.411       .  A
C1369      C1370   1.404       .  A
C1369      N1374   1.438       .  S
C1370      H1375   1.084       .  S
N1371      H1391   1.045       .  S
N1371      H1392   1.046       .  S
C1373      C1376   1.402       .  A
C1373      C1380   1.409       .  A
N1374      H1389   1.046       .  S
N1374      H1390   1.045       .  S
C1376      C1377   1.404       .  A
C1376      H1381   1.084       .  S
C1377      C1378   1.414       .  A
C1377      N1382   1.438       .  S
C1378      C1379   1.407       .  A
C1379      C1380   1.405       .  A
C1379      H1383   1.083       .  S
C1380      N1384   1.438       .  S
N1382      H1385   1.046       .  S
N1382      H1386   1.045       .  S
N1384      H1387   1.046       .  S
N1384      H1388   1.045       .  S
C1393      C1394   1.414       .  A
C1393      C1398   1.406       .  A
C1394      C1395   1.403       .  A
C1394      N1399   1.438       .  S
C1395      C1396   1.402       .  A
C1395      H1400   1.084       .  S
C1396      C1401   1.481       .  S
C1396      C1397   1.409       .  A
C1397      C1398   1.405       .  A
C1397      N1402   1.438       .  S
C1398      H1403   1.084       .  S
N1399      H1419   1.046       .  S
N1399      H1420   1.045       .  S
C1401      C1404   1.402       .  A
C1401      C1408   1.411       .  A
N1402      H1417   1.046       .  S
N1402      H1418   1.045       .  S
C1404      C1405   1.404       .  A
C1404      H1409   1.084       .  S
C1405      C1406   1.413       .  A
C1405      N1410   1.438       .  S
C1406      C1407   1.401       .  A
C1407      C1408   1.403       .  A
C1407      H1411   1.084       .  S
C1408      N1412   1.438       .  S
N1410      H1413   1.046       .  S
N1410      H1414   1.045       .  S
N1412      H1415   1.045       .  S
N1412      H1416   1.046       .  S
C1421      C1422   1.417       .  A
C1421      C1426   1.407       .  A
C1422      C1423   1.405       .  A
C1422      N1427   1.438       .  S
C1423      C1424   1.401       .  A
C1423      H1428   1.084       .  S
C1424      C1429   1.480       .  S
C1424      C1425   1.407       .  A
C1425      C1426   1.403       .  A
C1425      N1430   1.438       .  S
C1426      H1431   1.083       .  S
N1427      H1447   1.046       .  S
N1427      H1448   1.045       .  S
C1429      C1432   1.402       .  A
C1429      C1436   1.410       .  A
N1430      H1445   1.046       .  S
N1430      H1446   1.046       .  S
C1432      C1433   1.404       .  A
C1432      H1437   1.084       .  S
C1433      C1434   1.412       .  A
C1433      N1438   1.438       .  S
C1434      C1435   1.404       .  A
C1435      C1436   1.404       .  A
C1435      H1439   1.084       .  S
C1436      N1440   1.438       .  S
N1438      H1441   1.045       .  S
N1438      H1442   1.046       .  S
N1440      H1443   1.045       .  S
N1440      H1444   1.046       .  S
C1449      C1450   1.418       .  A
C1449      C1454   1.408       .  A
C1450      C1451   1.406       .  A
C1450      N1455   1.438       .  S
C1451      C1452   1.399       .  A
C1451      H1456   1.084       .  S
C1452      C1457   1.474       .  S
C1452      C1453   1.406       .  A
C1453      C1454   1.402       .  A
C1453      N1458   1.438       .  S
C1454      H1459   1.083       .  S
N1455      H1475   1.045       .  S
N1455      H1476   1.046       .  S
C1457      C1460   1.399       .  A
C1457      C1464   1.409       .  A
N1458      H1473   1.046       .  S
N1458      H1474   1.045       .  S
C1460      C1461   1.402       .  A
C1460      H1465   1.084       .  S
C1461      C1462   1.412       .  A
C1461      N1466   1.438       .  S
C1462      C1463   1.403       .  A
C1463      C1464   1.406       .  A
C1463      H1467   1.084       .  S
C1464      N1468   1.437       .  S
N1466      H1469   1.046       .  S
N1466      H1470   1.046       .  S
N1468      H1471   1.047       .  S
N1468      H1472   1.044       .  S
C1477      C1478   1.413       .  A
C1477      C1482   1.405       .  A
C1478      C1479   1.405       .  A
C1478      N1483   1.438       .  S
C1479      C1480   1.402       .  A
C1479      H1484   1.084       .  S
C1480      C1485   1.479       .  S
C1480      C1481   1.408       .  A
C1481      C1482   1.404       .  A
C1481      N1486   1.438       .  S
C1482      H1487   1.084       .  S
N1483      H1503   1.044       .  S
N1483      H1504   1.047       .  S
C1485      C1488   1.402       .  A
C1485      C1492   1.408       .  A
N1486      H1501   1.046       .  S
N1486      H1502   1.046       .  S
C1488      C1489   1.405       .  A
C1488      H1493   1.084       .  S
C1489      C1490   1.413       .  A
C1489      N1494   1.438       .  S
C1490      C1491   1.404       .  A
C1491      C1492   1.403       .  A
C1491      H1495   1.084       .  S
C1492      N1496   1.438       .  S
N1494      H1497   1.045       .  S
N1494      H1498   1.046       .  S
N1496      H1499   1.046       .  S
N1496      H1500   1.046       .  S
C1505      C1506   1.419       .  A
C1505      C1510   1.408       .  A
C1506      C1507   1.407       .  A
C1506      N1511   1.438       .  S
C1507      C1508   1.400       .  A
C1507      H1512   1.084       .  S
C1508      C1513   1.482       .  S
C1508      C1509   1.408       .  A
C1509      C1510   1.404       .  A
C1509      N1514   1.438       .  S
C1510      H1515   1.083       .  S
N1511      H1531   1.046       .  S
N1511      H1532   1.045       .  S
C1513      C1516   1.401       .  A
C1513      C1520   1.410       .  A
N1514      H1529   1.045       .  S
N1514      H1530   1.046       .  S
C1516      C1517   1.402       .  A
C1516      H1521   1.084       .  S
C1517      C1518   1.412       .  A
C1517      N1522   1.432       .  S
C1518      C1519   1.406       .  A
C1519      C1520   1.407       .  A
C1519      H1523   1.084       .  S
C1520      N1524   1.438       .  S
N1522      H1525   1.046       .  S
N1522      H1526   1.045       .  S
N1524      H1527   1.045       .  S
N1524      H1528   1.046       .  S
C1533      C1534   1.413       .  A
C1533      C1538   1.405       .  A
C1534      C1535   1.405       .  A
C1534      N1539   1.438       .  S
C1535      C1536   1.403       .  A
C1535      H1540   1.084       .  S
C1536      C1541   1.485       .  S
C1536      C1537   1.411       .  A
C1537      C1538   1.405       .  A
C1537      N1542   1.438       .  S
C1538      H1543   1.084       .  S
N1539      H1559   1.047       .  S
N1539      H1560   1.044       .  S
C1541      C1544   1.404       .  A
C1541      C1548   1.412       .  A
N1542      H1557   1.046       .  S
N1542      H1558   1.045       .  S
C1544      C1545   1.402       .  A
C1544      H1549   1.084       .  S
C1545      C1546   1.409       .  A
C1545      N1550   1.432       .  S
C1546      C1547   1.403       .  A
C1547      C1548   1.405       .  A
C1547      H1551   1.084       .  S
C1548      N1552   1.438       .  S
N1550      H1553   1.045       .  S
N1550      H1554   1.046       .  S
N1552      H1555   1.045       .  S
N1552      H1556   1.046       .  S
C1561      C1562   1.418       .  A
C1561      C1566   1.407       .  A
C1562      C1563   1.406       .  A
C1562      N1567   1.438       .  S
C1563      C1564   1.399       .  A
C1563      H1568   1.084       .  S
C1564      C1569   1.477       .  S
C1564      C1565   1.406       .  A
C1565      C1566   1.406       .  A
C1565      N1570   1.438       .  S
C1566      H1571   1.083       .  S
N1567      H1587   1.046       .  S
N1567      H1588   1.045       .  S
C1569      C1572   1.400       .  A
C1569      C1576   1.407       .  A
N1570      H1585   1.044       .  S
N1570      H1586   1.047       .  S
C1572      C1573   1.405       .  A
C1572      H1577   1.084       .  S
C1573      C1574   1.415       .  A
C1573      N1578   1.438       .  S
C1574      C1575   1.408       .  A
C1575      C1576   1.405       .  A
C1575      H1579   1.083       .  S
C1576      N1580   1.438       .  S
N1578      H1581   1.046       .  S
N1578      H1582   1.045       .  S
N1580      H1583   1.047       .  S
N1580      H1584   1.043       .  S
C1589      C1590   1.413       .  A
C1589      C1594   1.405       .  A
C1590      C1591   1.407       .  A
C1590      N1595   1.438       .  S
C1591      C1592   1.404       .  A
C1591      H1596   1.084       .  S
C1592      C1597   1.488       .  S
C1592      C1593   1.411       .  A
C1593      C1594   1.406       .  A
C1593      N1598   1.438       .  S
C1594      H1599   1.084       .  S
N1595      H1615   1.046       .  S
N1595      H1616   1.045       .  S
C1597      C1600   1.406       .  A
C1597      C1604   1.411       .  A
N1598      H1613   1.045       .  S
N1598      H1614   1.046       .  S
C1600      C1601   1.408       .  A
C1600      H1605   1.083       .  S
C1601      C1602   1.411       .  A
C1601      N1606   1.438       .  S
C1602      C1603   1.403       .  A
C1603      C1604   1.404       .  A
C1603      H1607   1.084       .  S
C1604      N1608   1.438       .  S
N1606      H1609   1.045       .  S
N1606      H1610   1.046       .  S
N1608      H1611   1.046       .  S
N1608      H1612   1.045       .  S
C1617      C1618   1.418       .  A
C1617      C1622   1.408       .  A
C1618      C1619   1.405       .  A
C1618      N1623   1.438       .  S
C1619      C1620   1.400       .  A
C1619      H1624   1.084       .  S
C1620      C1625   1.481       .  S
C1620      C1621   1.407       .  A
C1621      C1622   1.405       .  A
C1621      N1626   1.438       .  S
C1622      H1627   1.083       .  S
N1623      H1643   1.045       .  S
N1623      H1644   1.046       .  S
C1625      C1628   1.402       .  A
C1625      C1632   1.408       .  A
N1626      H1641   1.046       .  S
N1626      H1642   1.045       .  S
C1628      C1629   1.406       .  A
C1628      H1633   1.084       .  S
C1629      C1630   1.414       .  A
C1629      N1634   1.438       .  S
C1630      C1631   1.405       .  A
C1631      C1632   1.404       .  A
C1631      H1635   1.084       .  S
C1632      N1636   1.438       .  S
N1634      H1637   1.045       .  S
N1634      H1638   1.046       .  S
N1636      H1639   1.046       .  S
N1636      H1640   1.045       .  S
C1645      C1646   1.416       .  A
C1645      C1650   1.406       .  A
C1646      C1647   1.407       .  A
C1646      N1651   1.438       .  S
C1647      C1648   1.402       .  A
C1647      H1652   1.084       .  S
C1648      C1653   1.479       .  S
C1648      C1649   1.407       .  A
C1649      C1650   1.402       .  A
C1649      N1654   1.438       .  S
C1650      H1655   1.083       .  S
N1651      H1671   1.046       .  S
N1651      H1672   1.046       .  S
C1653      C1656   1.403       .  A
C1653      C1660   1.410       .  A
N1654      H1669   1.044       .  S
N1654      H1670   1.047       .  S
C1656      C1657   1.401       .  A
C1656      H1661   1.084       .  S
C1657      C1658   1.405       .  A
C1657      N1662   1.432       .  S
C1658      C1659   1.404       .  A
C1659      C1660   1.404       .  A
C1659      H1663   1.084       .  S
C1660      N1664   1.438       .  S
N1662      H1665   1.045       .  S
N1662      H1666   1.046       .  S
N1664      H1667   1.044       .  S
N1664      H1668   1.047       .  S
C1673      C1674   1.415       .  A
C1673      C1678   1.404       .  A
C1674      C1675   1.406       .  A
C1674      N1679   1.438       .  S
C1675      C1676   1.401       .  A
C1675      H1680   1.084       .  S
C1676      C1681   1.480       .  S
C1676      C1677   1.409       .  A
C1677      C1678   1.403       .  A
C1677      N1682   1.438       .  S
C1678      H1683   1.084       .  S
N1679      H1699   1.045       .  S
N1679      H1700   1.046       .  S
C1681      C1684   1.402       .  A
C1681      C1688   1.411       .  A
N1682      H1697   1.046       .  S
N1682      H1698   1.045       .  S
C1684      C1685   1.402       .  A
C1684      H1689   1.084       .  S
C1685      C1686   1.409       .  A
C1685      N1690   1.438       .  S
C1686      C1687   1.403       .  A
C1687      C1688   1.406       .  A
C1687      H1691   1.084       .  S
C1688      N1692   1.438       .  S
N1690      H1693   1.045       .  S
N1690      H1694   1.046       .  S
N1692      H1695   1.045       .  S
N1692      H1696   1.046       .  S
C1701      C1702   1.414       .  A
C1701      C1706   1.405       .  A
C1702      C1703   1.407       .  A
C1702      N1707   1.438       .  S
C1703      C1704   1.401       .  A
C1703      H1708   1.084       .  S
C1704      C1709   1.479       .  S
C1704      C1705   1.408       .  A
C1705      C1706   1.403       .  A
C1705      N1710   1.438       .  S
C1706      H1711   1.084       .  S
N1707      H1727   1.046       .  S
N1707      H1728   1.045       .  S
C1709      C1712   1.402       .  A
C1709      C1716   1.408       .  A
N1710      H1725   1.046       .  S
N1710      H1726   1.045       .  S
C1712      C1713   1.404       .  A
C1712      H1717   1.084       .  S
C1713      C1714   1.412       .  A
C1713      N1718   1.438       .  S
C1714      C1715   1.405       .  A
C1715      C1716   1.405       .  A
C1715      H1719   1.084       .  S
C1716      N1720   1.437       .  S
N1718      H1721   1.045       .  S
N1718      H1722   1.046       .  S
N1720      H1723   1.045       .  S
N1720      H1724   1.046       .  S
