geometry optimzed in LAMMPS
_audit_creation_date              2020-12-01 
_audit_creation_method            'lammps2cif' 
_symmetry_space_group_name_H-M    'P1' 
_symmetry_Int_Tables_number       1 
_symmetry_cell_setting            triclinic 
loop_ 
_symmetry_equiv_pos_as_xyz 
  x,y,z 
_cell_length_a                    75.64978227 
_cell_length_b                    76.25884627340416 
_cell_length_c                    34.639905272396945 
_cell_angle_alpha                 89.73295490199389 
_cell_angle_beta                  90.21062900304001 
_cell_angle_gamma                 119.87193592007137 
loop_ 
_atom_site_label 
_atom_site_type_symbol 
_atom_site_fract_x 
_atom_site_fract_y 
_atom_site_fract_z 
_atom_site_charge 
In1        In  0.74630113  0.91406356  0.10470723     1.36900
C2          C  0.75260884  0.89094074  0.05558465     0.77300
O3          O  0.76470078  0.90537858  0.14295581    -0.61100
O4          O  0.73542763  0.89910664  0.16197173    -0.52000
C5          C  0.76842679  0.95449531  0.11263562     0.70000
O6          O  0.76814820  0.94542829  0.08215362    -0.46900
C7          C  0.70951274  0.90645466  0.08043183     0.74700
O8          O  0.76519869  0.90958196  0.05970906    -0.58800
O9          O  0.71334648  0.90424763  0.11490877    -0.48900
O10         O  0.73740612  0.88434622  0.07757653    -0.55200
C11         C  0.75096329  0.89745302  0.16830453     0.84900
O12         O  0.75759624  0.94277881  0.13918716    -0.57100
O13         O  0.72492368  0.91366448  0.05879905    -0.60400
In14       In  0.82917716  0.08191343  0.14306149     1.36900
C15         C  0.85760705  0.10623509  0.19329406     0.77300
O16         O  0.85536279  0.08832212  0.10402568    -0.61100
O17         O  0.83393441  0.09674083  0.08527868    -0.52000
C18         C  0.81160718  0.04169957  0.13523277     0.70000
O19         O  0.82235175  0.05107236  0.16404282    -0.46900
C20         C  0.79957087  0.08855125  0.16763564     0.74700
O21         O  0.85213594  0.08771384  0.19007467    -0.58800
O22         O  0.80679393  0.09272054  0.13394065    -0.48900
O23         O  0.84912089  0.11222111  0.16955710    -0.55200
C24         C  0.85020700  0.09660151  0.07815462     0.84900
O25         O  0.80998044  0.05298433  0.11050609    -0.57100
O26         O  0.80637692  0.07938576  0.18765617    -0.60400
In27       In  0.08762170  0.25579094  0.35062197     1.36900
C28         C  0.10916622  0.25039456  0.29642691     0.77300
O29         O  0.08492314  0.27600751  0.30691452    -0.61100
O30         O  0.10295694  0.28958617  0.35654667    -0.52000
C31         C  0.04737069  0.23395026  0.36049073     0.70000
O32         O  0.05745346  0.22726788  0.34336957    -0.46900
C33         C  0.10259901  0.24926261  0.41503595     0.74700
O34         O  0.08992843  0.24114456  0.29642822    -0.58800
O35         O  0.09995469  0.26423171  0.41060982    -0.48900
O36         O  0.11715645  0.26204191  0.32478409    -0.55200
C37         C  0.09685523  0.29218014  0.32418477     0.84900
O38         O  0.05799293  0.25181913  0.37252671    -0.57100
O39         O  0.09633720  0.23700090  0.38731300    -0.60400
In40       In  0.91923986  0.16973616  0.39288147     1.36900
C41         C  0.89724822  0.14151246  0.44505820     0.77300
O42         O  0.91752203  0.18890813  0.44019428    -0.61100
O43         O  0.90450952  0.18863216  0.38587483    -0.52000
C44         C  0.95971123  0.19018129  0.38346467     0.70000
O45         O  0.95029303  0.17216401  0.39554213    -0.46900
C46         C  0.90546960  0.15168158  0.32509107     0.74700
O47         O  0.91640281  0.15247781  0.44772480    -0.58800
O48         O  0.90607897  0.16794550  0.33433566    -0.48900
O49         O  0.88992191  0.14419460  0.41441259    -0.55200
C50         C  0.90735225  0.19470479  0.42031997     0.84900
O51         O  0.94834647  0.19748071  0.37659979    -0.57100
O52         O  0.91279851  0.14511179  0.35030221    -0.60400
In53       In  0.16790489  0.91176455  0.34967372     1.36900
C54         C  0.13951546  0.89101857  0.29678508     0.77300
O55         O  0.18930268  0.91328280  0.30309617    -0.61100
O56         O  0.18709691  0.89712099  0.35438600    -0.52000
C57         C  0.18866413  0.95166733  0.36181273     0.70000
O58         O  0.17245482  0.94320223  0.34222005    -0.46900
C59         C  0.14814274  0.89705612  0.41570251     0.74700
O60         O  0.14837435  0.91004753  0.29913744    -0.58800
O61         O  0.16415690  0.89683817  0.40680249    -0.48900
O62         O  0.14446372  0.88276444  0.32299146    -0.55200
C63         C  0.19467173  0.90227287  0.32109404     0.84900
O64         O  0.19408937  0.93967537  0.37501246    -0.57100
O65         O  0.14257701  0.90554403  0.39107867    -0.60400
In66       In  0.25390123  0.07811027  0.40426039     1.36900
C67         C  0.24594968  0.09819105  0.45800976     0.77300
O68         O  0.27590799  0.07951966  0.44980935    -0.61100
O69         O  0.28763087  0.09250847  0.39516114    -0.52000
C70         C  0.23226197  0.03802579  0.39266210     0.70000
O71         O  0.22429838  0.04843728  0.40216052    -0.46900
C72         C  0.24964093  0.09312091  0.33750968     0.74700
O73         O  0.23919030  0.07938125  0.45996317    -0.58800
O74         O  0.26564274  0.09285243  0.34676242    -0.48900
O75         O  0.25613711  0.10631459  0.42796560    -0.55200
C76         C  0.29156035  0.08950823  0.42915252     0.84900
O77         O  0.25139248  0.04815384  0.39005920    -0.57100
O78         O  0.23553840  0.08486571  0.36196553    -0.60400
In79       In  0.25680708  0.16795954  0.15193959     1.36900
C80         C  0.25113843  0.14020844  0.20466803     0.77300
O81         O  0.23602996  0.14284182  0.11195446    -0.61100
O82         O  0.26610791  0.16325153  0.09344978    -0.52000
C83         C  0.23782803  0.18925133  0.14264886     0.70000
O84         O  0.22945071  0.17210539  0.15874004    -0.46900
C85         C  0.29358550  0.19431911  0.17876507     0.74700
O86         O  0.24187494  0.15016863  0.20587786    -0.58800
O87         O  0.29050102  0.18821544  0.14427749    -0.48900
O88         O  0.26224464  0.14380637  0.17535892    -0.55200
C89         C  0.24927230  0.14777011  0.08586943     0.84900
O90         O  0.25578125  0.19530686  0.13165779    -0.57100
O91         O  0.27761194  0.18746272  0.19885838    -0.60400
In92       In  0.17774975  0.25628230  0.10207640     1.36900
C93         C  0.15083028  0.25031843  0.04612418     0.77300
O94         O  0.15169908  0.23823654  0.14243418    -0.61100
O95         O  0.17583434  0.26634064  0.16154294    -0.52000
C96         C  0.19544841  0.23390814  0.11408613     0.70000
O97         O  0.17814294  0.22692536  0.09859513    -0.46900
C98         C  0.20489885  0.29374418  0.07999270     0.74700
O99         O  0.16288836  0.24339651  0.04424892    -0.58800
O100        O  0.19363543  0.28989752  0.10911223    -0.48900
O101        O  0.15231253  0.25951412  0.07703087    -0.55200
C102        C  0.15867696  0.25128034  0.16893207     0.84900
O103        O  0.20364972  0.25235064  0.12277561    -0.57100
O104        O  0.20285750  0.27820303  0.06308246    -0.60400
In105      In  0.08245206  0.82132811  0.10044701     1.36900
C106        C  0.10385744  0.84960605  0.04817992     0.77300
O107        O  0.08963620  0.84826056  0.13732359    -0.61100
O108        O  0.09581862  0.82588470  0.15943271    -0.52000
C109        C  0.04252535  0.80213025  0.11395229     0.70000
O110        O  0.05021692  0.81198225  0.08326910    -0.46900
C111        C  0.09126839  0.79351102  0.07535383     0.74700
O112        O  0.08502889  0.84300177  0.05317982    -0.58800
O113        O  0.09867480  0.80358511  0.10576909    -0.48900
O114        O  0.11132682  0.84200800  0.07065093    -0.55200
C115        C  0.09630650  0.84243599  0.16510041     0.84900
O116        O  0.05532973  0.80184779  0.13682958    -0.57100
O117        O  0.07817573  0.79670566  0.05920087    -0.60400
In118      In  0.91541734  0.73676243  0.15492236     1.36900
C119        C  0.89397960  0.74248288  0.20943256     0.77300
O120        O  0.90620450  0.75561731  0.11907978    -0.61100
O121        O  0.90059319  0.72744930  0.09713755    -0.52000
C122        C  0.95537034  0.75888459  0.14144033     0.70000
O123        O  0.94754571  0.75904557  0.17343317    -0.46900
C124        C  0.90910606  0.70045771  0.17717543     0.74700
O125        O  0.91222286  0.75544490  0.20176765    -0.58800
O126        O  0.90130727  0.70323323  0.14720394    -0.48900
O127        O  0.88682233  0.72696960  0.18849260    -0.55200
C128        C  0.89884158  0.74291793  0.09205728     0.84900
O129        O  0.94272512  0.74731432  0.11680725    -0.57100
O130        O  0.92130335  0.71657773  0.19427388    -0.60400
In131      In  0.82624828  0.73998809  0.40389535     1.36900
C132        C  0.85285814  0.74549165  0.45960739     0.77300
O133        O  0.80395073  0.71884300  0.44745079    -0.61100
O134        O  0.80995373  0.70625229  0.39832437    -0.52000
C135        C  0.80644890  0.76045314  0.39313102     0.70000
O136        O  0.82471881  0.76885488  0.40463160    -0.46900
C137        C  0.84528345  0.74395316  0.33713421     0.74700
O138        O  0.84205611  0.75388723  0.46078254    -0.58800
O139        O  0.82715513  0.73034868  0.34341470    -0.48900
O140        O  0.85098073  0.73603371  0.42886951    -0.55200
C141        C  0.80110293  0.70304726  0.43052473     0.84900
O142        O  0.79869496  0.74180670  0.38710338    -0.57100
O143        O  0.85319208  0.75642304  0.36444559    -0.60400
In144      In  0.74248260  0.82398461  0.35735175     1.36900
C145        C  0.74913643  0.84998273  0.30038248     0.77300
O146        O  0.71943484  0.80064056  0.31745758    -0.61100
O147        O  0.70847375  0.80940023  0.36535976    -0.52000
C148        C  0.76374230  0.80514331  0.36839698     0.70000
O149        O  0.77139055  0.82254749  0.35371162    -0.46900
C150        C  0.75059424  0.84456873  0.42304627     0.74700
O151        O  0.75421227  0.83655029  0.29789615    -0.58800
O152        O  0.73521108  0.82720564  0.41864497    -0.48900
O153        O  0.74172825  0.85041625  0.33256045    -0.55200
C154        C  0.70410014  0.79901797  0.33488316     0.84900
O155        O  0.74513917  0.79737790  0.37681680    -0.57100
O156        O  0.76206027  0.85101945  0.39394944    -0.60400
In157      In  0.74782661  0.15385838  0.26031445     1.36900
C158        C  0.76861397  0.18164022  0.20676527     0.77300
O159        O  0.75564066  0.17985728  0.29995745    -0.61100
O160        O  0.76397394  0.15823139  0.31681598    -0.52000
C161        C  0.70774487  0.13526664  0.27391168     0.70000
O162        O  0.71744937  0.15254053  0.25870585    -0.46900
C163        C  0.75731669  0.12750325  0.23071486     0.74700
O164        O  0.74940558  0.17077835  0.20556926    -0.58800
O165        O  0.76063132  0.13286344  0.26564828    -0.48900
O166        O  0.77661837  0.17848011  0.23590541    -0.55200
C167        C  0.76448665  0.17464285  0.32448247     0.84900
O168        O  0.71868695  0.12759938  0.28207617    -0.57100
O169        O  0.74768876  0.13435795  0.21218466    -0.60400
In170      In  0.58042592  0.07063314  0.30881349     1.36900
C171        C  0.55767470  0.07503305  0.36153146     0.77300
O172        O  0.57404388  0.09004312  0.26892731    -0.61100
O173        O  0.56556772  0.06032189  0.25113308    -0.52000
C174        C  0.62047955  0.09063504  0.29863701     0.70000
O175        O  0.61109247  0.09850998  0.31432400    -0.46900
C176        C  0.57207000  0.03547511  0.33941332     0.74700
O177        O  0.57686133  0.08619853  0.36091198    -0.58800
O178        O  0.56789860  0.03719613  0.30470779    -0.48900
O179        O  0.55049807  0.06287600  0.33376129    -0.55200
C180        C  0.56560166  0.07654289  0.24361464     0.84900
O181        O  0.60928896  0.07264421  0.28783879    -0.57100
O182        O  0.58207164  0.05203579  0.35697865    -0.60400
In183      In  0.49046240  0.07007571  0.05906195     1.36900
C184        C  0.51857615  0.07619246  0.11181283     0.77300
O185        O  0.46966840  0.05007402  0.10613314    -0.61100
O186        O  0.46965748  0.03663171  0.05293193    -0.52000
C187        C  0.47259345  0.09239328  0.04763321     0.70000
O188        O  0.48960066  0.09906936  0.06408924    -0.46900
C189        C  0.51067297  0.07457695  0.99359406     0.74700
O190        O  0.50848924  0.08532830  0.11254883    -0.58800
O191        O  0.49365561  0.05923108  0.00095682    -0.48900
O192        O  0.51453436  0.06457911  0.08339259    -0.55200
C193        C  0.46301808  0.03394595  0.08701999     0.84900
O194        O  0.46468831  0.07420393  0.03731308    -0.57100
O195        O  0.51682608  0.08796493  0.01930192    -0.60400
In196      In  0.41036052  0.15847993  0.02077689     1.36900
C197        C  0.41732077  0.18640355  0.46736864     0.77300
O198        O  0.38884750  0.13811170  0.47492078    -0.61100
O199        O  0.37631735  0.13980836  0.02819917    -0.52000
C200        C  0.43031184  0.13789221  0.02889084     0.70000
O201        O  0.43822423  0.15506243  0.01304200    -0.46900
C202        C  0.41704439  0.17921720  0.08634701     0.74700
O203        O  0.42534062  0.17530309  0.46589305    -0.58800
O204        O  0.40166412  0.16198208  0.08115120    -0.48900
O205        O  0.40647265  0.18345211  0.49681263    -0.55200
C206        C  0.37293261  0.13250694  0.49462557     0.84900
O207        O  0.41258896  0.13173695  0.04138866    -0.57100
O208        O  0.42954445  0.18522239  0.05878384    -0.60400
In209      In  0.41160718  0.24797170  0.27081653     1.36900
C210        C  0.41705007  0.22597449  0.21765342     0.77300
O211        O  0.43109266  0.24027770  0.30827381    -0.61100
O212        O  0.40358546  0.23652191  0.33139889    -0.52000
C213        C  0.43228447  0.28827064  0.27861373     0.70000
O214        O  0.43945355  0.27864312  0.26143850    -0.46900
C215        C  0.37408592  0.23687242  0.24668913     0.74700
O216        O  0.42658459  0.24510005  0.21708447    -0.58800
O217        O  0.37788901  0.23276704  0.27989100    -0.48900
O218        O  0.40529347  0.21842261  0.24609054    -0.55200
C219        C  0.41886556  0.23428300  0.33625592     0.84900
O220        O  0.41453429  0.27715063  0.29130229    -0.57100
O221        O  0.38976007  0.24787148  0.22681992    -0.60400
In222      In  0.49846093  0.41523914  0.31164538     1.36900
C223        C  0.52688437  0.43694670  0.36387661     0.77300
O224        O  0.52457073  0.42554721  0.27096395    -0.61100
O225        O  0.49882583  0.42725067  0.25201071    -0.52000
C226        C  0.47942288  0.37526358  0.30061041     0.70000
O227        O  0.49816426  0.38537049  0.30858920    -0.46900
C228        C  0.47285495  0.42482693  0.34448235     0.74700
O229        O  0.51666302  0.41781719  0.36527131    -0.58800
O230        O  0.47768872  0.42847412  0.30925167    -0.48900
O231        O  0.52318540  0.44443542  0.33459951    -0.55200
C232        C  0.51662806  0.43078969  0.24456382     0.84900
O233        O  0.47072157  0.38563207  0.29861088    -0.57100
O234        O  0.48004084  0.41515472  0.36165098    -0.60400
In235      In  0.58517492  0.50660564  0.06057403     1.36900
C236        C  0.56402379  0.47907996  0.11444841     0.77300
O237        O  0.58918128  0.53084215  0.10244202    -0.61100
O238        O  0.57113924  0.52665228  0.05321603    -0.52000
C239        C  0.62533244  0.52398085  0.05002097     0.70000
O240        O  0.61656531  0.51422847  0.08009109    -0.46900
C241        C  0.57083840  0.48436686  0.99693803     0.74700
O242        O  0.58310520  0.48730006  0.11111875    -0.58800
O243        O  0.57192203  0.50132631  0.00107108    -0.48900
O244        O  0.55571363  0.48441253  0.08888788    -0.55200
C245        C  0.57787732  0.53589984  0.08464082     0.84900
O246        O  0.61358342  0.52497363  0.02538875    -0.57100
O247        O  0.57746201  0.47897085  0.02540384    -0.60400
In248      In  0.75360136  0.58587467  0.02384303     1.36900
C249        C  0.77571266  0.57999091  0.47144622     0.77300
O250        O  0.75227996  0.60601558  0.47784258    -0.61100
O251        O  0.76869620  0.61983089  0.02883032    -0.52000
C252        C  0.71308677  0.56586580  0.03244721     0.70000
O253        O  0.72210214  0.56005335  0.00970193    -0.46900
C254        C  0.76715886  0.57827509  0.08962182     0.74700
O255        O  0.75657887  0.56887305  0.47361425    -0.58800
O256        O  0.76515756  0.59360128  0.08485089    -0.48900
O257        O  0.78335779  0.59326252  0.49745855    -0.55200
C258        C  0.76360565  0.62228102  0.49536039     0.84900
O259        O  0.72483930  0.58193354  0.05009116    -0.57100
O260        O  0.76130659  0.56639504  0.06126464    -0.60400
In261      In  0.84292103  0.58512682  0.27261433     1.36900
C262        C  0.81343309  0.57808058  0.22234363     0.77300
O263        O  0.81688886  0.56801343  0.31445150    -0.61100
O264        O  0.84038981  0.59720370  0.32965282    -0.52000
C265        C  0.86123769  0.56314363  0.28314490     0.70000
O266        O  0.84921881  0.56026060  0.25555267    -0.46900
C267        C  0.87077977  0.62004587  0.24092104     0.74700
O268        O  0.82013178  0.56599835  0.22721307    -0.58800
O269        O  0.86547819  0.61853706  0.27576623    -0.48900
O270        O  0.82116342  0.59308606  0.24465807    -0.55200
C271        C  0.82361758  0.58209522  0.33900516     0.84900
O272        O  0.86392812  0.57733442  0.30517092    -0.57100
O273        O  0.86311610  0.60342686  0.22345897    -0.60400
In274      In  0.92365809  0.49752681  0.30959644     1.36900
C275        C  0.91785645  0.46889755  0.36057968     0.77300
O276        O  0.90494078  0.47083411  0.27123680    -0.61100
O277        O  0.93363742  0.49403123  0.25127538    -0.52000
C278        C  0.90260877  0.51681817  0.30047951     0.70000
O279        O  0.90213354  0.50774662  0.33131990    -0.46900
C280        C  0.96007670  0.52601016  0.33378590     0.74700
O281        O  0.90438751  0.47372030  0.35372381    -0.58800
O282        O  0.95718485  0.51838170  0.30059511    -0.48900
O283        O  0.93365272  0.47828984  0.34031705    -0.55200
C284        C  0.91802257  0.47721353  0.24450425     0.84900
O285        O  0.91371483  0.51580081  0.27474352    -0.57100
O286        O  0.94409285  0.51996745  0.35345262    -0.60400
In287      In  0.83742218  0.24243703  0.01174578     1.36900
C288        C  0.81054946  0.22084937  0.45741800     0.77300
O289        O  0.85835508  0.24178502  0.46720896    -0.61100
O290        O  0.85783540  0.22916651  0.02184229    -0.52000
C291        C  0.85723589  0.28247708  0.02125463     0.70000
O292        O  0.84174034  0.27338644  0.99998978    -0.46900
C293        C  0.81539540  0.22834496  0.07567908     0.74700
O294        O  0.82062974  0.23995892  0.45645680    -0.58800
O295        O  0.83200849  0.22862561  0.07038203    -0.48900
O296        O  0.81359746  0.21323245  0.48726862    -0.55200
C297        C  0.86464593  0.23237744  0.48789908     0.84900
O298        O  0.86252265  0.27095748  0.03730057    -0.57100
O299        O  0.81034109  0.23604858  0.04856135    -0.60400
In300      In  0.92325301  0.40866905  0.06035016     1.36900
C301        C  0.91635592  0.42899273  0.11492827     0.77300
O302        O  0.94382085  0.40761737  0.10593695    -0.61100
O303        O  0.95723230  0.42341950  0.05394356    -0.52000
C304        C  0.90263655  0.36874837  0.04971000     0.70000
O305        O  0.89404981  0.37864998  0.05892034    -0.46900
C306        C  0.91738670  0.42276835  0.99376548     0.74700
O307        O  0.90679116  0.40992017  0.11332218    -0.58800
O308        O  0.93296193  0.42122989  0.00054347    -0.48900
O309        O  0.92889585  0.43740043  0.08781193    -0.55200
C310        C  0.96003649  0.41848717  0.08735899     0.84900
O311        O  0.92166768  0.37927437  0.04630147    -0.57100
O312        O  0.90463673  0.41650417  0.02083150    -0.60400
In313      In  0.07898223  0.57787396  0.42042150     1.36900
C314        C  0.08599277  0.55775751  0.36514446     0.77300
O315        O  0.09890601  0.57316481  0.46302425    -0.61100
O316        O  0.06819913  0.56310381  0.47771223    -0.52000
C317        C  0.09791556  0.61772444  0.43193359     0.70000
O318        O  0.10690030  0.60889992  0.41851855    -0.46900
C319        C  0.04112969  0.56598677  0.39760556     0.74700
O320        O  0.09149669  0.57629701  0.36213182    -0.58800
O321        O  0.04539512  0.56179798  0.43031841    -0.48900
O322        O  0.07810762  0.55018785  0.39723656    -0.55200
C323        C  0.08483553  0.56430697  0.48750269     0.84900
O324        O  0.07932694  0.60611363  0.43884240    -0.57100
O325        O  0.05651122  0.57701427  0.37708369    -0.60400
In326      In  0.15829000  0.74268707  0.48531536     1.36900
C327        C  0.18578625  0.76386345  0.03946883     0.77300
O328        O  0.18480941  0.75200575  0.44523119    -0.61100
O329        O  0.16036647  0.75614199  0.42717619    -0.52000
C330        C  0.14031500  0.70312515  0.47012859     0.70000
O331        O  0.15764711  0.71273774  0.48573379    -0.46900
C332        C  0.13157760  0.75244828  0.01319295     0.74700
O333        O  0.17457058  0.74484797  0.04159928    -0.58800
O334        O  0.13932214  0.75775717  0.48004215    -0.48900
O335        O  0.18347272  0.77137522  0.00879925    -0.55200
C336        C  0.17779490  0.75868407  0.41961898     0.84900
O337        O  0.13215992  0.71374561  0.46350347    -0.57100
O338        O  0.13643383  0.74095197  0.03082377    -0.60400
In339      In  0.16588895  0.40863959  0.23179050     1.36900
C340        C  0.19415538  0.41618357  0.28547195     0.77300
O341        O  0.14262339  0.38911784  0.27623160    -0.61100
O342        O  0.14667663  0.37482392  0.22776856    -0.52000
C343        C  0.14650843  0.42934750  0.21688605     0.70000
O344        O  0.15714335  0.43209648  0.24673578    -0.46900
C345        C  0.18784295  0.41414698  0.16864680     0.74700
O346        O  0.18690480  0.42773696  0.27953675    -0.58800
O347        O  0.17014705  0.39923830  0.17306745    -0.48900
O348        O  0.18759202  0.40142161  0.26259930    -0.55200
C349        C  0.13800978  0.37269009  0.25983981     0.84900
O350        O  0.14599707  0.41616359  0.19446537    -0.57100
O351        O  0.19396036  0.42665470  0.19606274    -0.60400
In352      In  0.07894369  0.48867717  0.17072515     1.36900
C353        C  0.08353320  0.51655615  0.11878941     0.77300
O354        O  0.05858227  0.46464983  0.12839782    -0.61100
O355        O  0.04517039  0.46856143  0.17853607    -0.52000
C356        C  0.10135948  0.47081934  0.18219435     0.70000
O357        O  0.10296424  0.48100388  0.15228543    -0.46900
C358        C  0.08539458  0.51084850  0.23363316     0.74700
O359        O  0.09643823  0.51071316  0.12262335    -0.58800
O360        O  0.07021814  0.49334055  0.22979372    -0.48900
O361        O  0.06888624  0.50834264  0.14206950    -0.55200
C362        C  0.04236171  0.45971567  0.14657306     0.84900
O363        O  0.08834531  0.46991823  0.20590024    -0.57100
O364        O  0.09784646  0.51660485  0.20594198    -0.60400
In365      In  0.24515389  0.83456347  0.23489984     1.36900
C366        C  0.22356366  0.80831211  0.28967931     0.77300
O367        O  0.24722020  0.85682069  0.27950593    -0.61100
O368        O  0.23043830  0.85361652  0.22837685    -0.52000
C369        C  0.28528515  0.85430922  0.22268313     0.70000
O370        O  0.27645050  0.83808853  0.24191280    -0.46900
C371        C  0.23032286  0.81233762  0.17134163     0.74700
O372        O  0.24278792  0.81660824  0.28839324    -0.58800
O373        O  0.23182469  0.82947628  0.17515121    -0.48900
O374        O  0.21572231  0.81288558  0.26210112    -0.55200
C375        C  0.23589889  0.86174842  0.26119880     0.84900
O376        O  0.27351710  0.86021780  0.21003042    -0.57100
O377        O  0.23719880  0.80704775  0.19947389    -0.60400
In378      In  0.41294070  0.91863230  0.18749944     1.36900
C379        C  0.43550336  0.91299138  0.13563898     0.77300
O380        O  0.41234025  0.93873774  0.14029912    -0.61100
O381        O  0.42665493  0.95219534  0.19311548    -0.52000
C382        C  0.37253215  0.89669237  0.19589208     0.70000
O383        O  0.38300543  0.88927930  0.18335390    -0.46900
C384        C  0.42715651  0.91439756  0.25546079     0.74700
O385        O  0.41627419  0.90398067  0.13369171    -0.58800
O386        O  0.42572270  0.92971206  0.24684033    -0.48900
O387        O  0.44271878  0.92381952  0.16518020    -0.55200
C388        C  0.42247972  0.95489423  0.15910766     0.84900
O389        O  0.38281639  0.91524157  0.20372099    -0.57100
O390        O  0.42040581  0.90089633  0.22983640    -0.60400
In391      In  0.59077166  0.84139318  0.49507048     1.36900
C392        C  0.58628888  0.81494293  0.04962067     0.77300
O393        O  0.56999026  0.81481804  0.45777344    -0.61100
O394        O  0.59916742  0.83573509  0.43624483    -0.52000
C395        C  0.56880735  0.85968542  0.48573261     0.70000
O396        O  0.56246263  0.84351256  0.50463796    -0.46900
C397        C  0.62799690  0.86930964  0.01782101     0.74700
O398        O  0.57695244  0.82480995  0.05032284    -0.58800
O399        O  0.62426772  0.86141210  0.48474284    -0.48900
O400        O  0.59750627  0.81848331  0.02053496    -0.55200
C401        C  0.58266223  0.81948270  0.43074144     0.84900
O402        O  0.58648508  0.86647507  0.47224021    -0.57100
O403        O  0.61233747  0.86381596  0.03832503    -0.60400
In404      In  0.50326569  0.92037968  0.43875781     1.36900
C405        C  0.47520673  0.91348994  0.38530471     0.77300
O406        O  0.47839625  0.90054903  0.47976473    -0.61100
O407        O  0.49853097  0.93094583  0.49586764    -0.52000
C408        C  0.52409503  0.90134053  0.45224311     0.70000
O409        O  0.50650686  0.89255602  0.43747497    -0.46900
C410        C  0.52986125  0.95596021  0.40850246     0.74700
O411        O  0.48594254  0.90504328  0.38506421    -0.58800
O412        O  0.52302797  0.95404892  0.44245707    -0.48900
O413        O  0.47825706  0.92464511  0.41420183    -0.55200
C414        C  0.48300419  0.91427573  0.50437651     0.84900
O415        O  0.53090866  0.91973072  0.45975403    -0.57100
O416        O  0.52372537  0.93944466  0.39107178    -0.60400
In417      In  0.25610520  0.40915200  0.48266731     1.36900
C418        C  0.23432291  0.41458097  0.03631253     0.77300
O419        O  0.24577955  0.42669132  0.44516776    -0.61100
O420        O  0.24450454  0.40053530  0.42192638    -0.52000
C421        C  0.29646700  0.43043813  0.47201440     0.70000
O422        O  0.28743973  0.43549030  0.49626445    -0.46900
C423        C  0.24732436  0.37322462  0.01117521     0.74700
O424        O  0.25321159  0.42663035  0.03205007    -0.58800
O425        O  0.25858769  0.38953874  0.52865793    -0.48900
O426        O  0.22667820  0.40047053  0.01197626    -0.55200
C427        C  0.24111789  0.41494864  0.41667167     0.84900
O428        O  0.28486085  0.41448243  0.45395936    -0.57100
O429        O  0.24187783  0.37545984  0.97795886    -0.60400
In430      In  0.42399818  0.49207320  0.43842738     1.36900
C431        C  0.44443889  0.51908093  0.38306475     0.77300
O432        O  0.43266091  0.51964854  0.47449963    -0.61100
O433        O  0.43709924  0.49647175  0.49793368    -0.52000
C434        C  0.38394804  0.47364536  0.45064658     0.70000
O435        O  0.39238418  0.48514461  0.42218509    -0.46900
C436        C  0.43263406  0.46400509  0.41402949     0.74700
O437        O  0.42536330  0.51086235  0.38689453    -0.58800
O438        O  0.44069521  0.47481531  0.44335253    -0.48900
O439        O  0.45292146  0.51398943  0.40862611    -0.55200
C440        C  0.43921007  0.51382100  0.50243643     0.84900
O441        O  0.39599718  0.47154946  0.47283724    -0.57100
O442        O  0.41903960  0.46665845  0.39870673    -0.60400
In443      In  0.51253129  0.58420586  0.18794914     1.36900
C444        C  0.48568957  0.56180606  0.13388808     0.77300
O445        O  0.53378948  0.58681260  0.14018143    -0.61100
O446        O  0.53496029  0.57311419  0.19267549    -0.52000
C447        C  0.52883878  0.62377122  0.20238715     0.70000
O448        O  0.51130221  0.61334372  0.18790244    -0.46900
C449        C  0.49269780  0.56739011  0.25345678     0.74700
O450        O  0.49489141  0.58094407  0.13307348    -0.58800
O451        O  0.51018665  0.57002817  0.24619023    -0.48900
O452        O  0.48973137  0.55461633  0.16318615    -0.55200
C453        C  0.54122746  0.57760282  0.15835721     0.84900
O454        O  0.53777037  0.61386479  0.20864611    -0.57100
O455        O  0.48567217  0.57387045  0.22749432    -0.60400
In456      In  0.58481349  0.74958621  0.24649576     1.36900
C457        C  0.57818732  0.77128453  0.29852817     0.77300
O458        O  0.60509999  0.75135351  0.29548891    -0.61100
O459        O  0.61860106  0.76193699  0.24064089    -0.52000
C460        C  0.56466051  0.70959226  0.23482099     0.70000
O461        O  0.55586071  0.71884861  0.24695258    -0.46900
C462        C  0.58141628  0.76507907  0.17991221     0.74700
O463        O  0.57080598  0.75237944  0.30197551    -0.58800
O464        O  0.59744833  0.76512680  0.19023361    -0.48900
O465        O  0.58746147  0.77839256  0.26723300    -0.55200
C466        C  0.62129626  0.75983815  0.27598754     0.84900
O467        O  0.58345394  0.72083934  0.22915679    -0.57100
O468        O  0.56671864  0.75608306  0.20304167    -0.60400
C469        C  0.52562109  0.65458924  0.21094658    -0.20600
C470        C  0.53806957  0.64569092  0.21157188    -0.07100
C471        C  0.55898996  0.65792490  0.22113579     0.13700
C472        C  0.56680614  0.67850215  0.22886148    -0.20600
C473        C  0.55447757  0.68743294  0.22801426    -0.07100
C474        C  0.53349124  0.67523661  0.21935096     0.13700
C475        C  0.51939938  0.68386580  0.21800177    -0.24000
H476        H  0.50959199  0.64532729  0.20397088     0.15000
H477        H  0.58284454  0.68775537  0.23581491     0.15000
C478        C  0.57349248  0.64974354  0.22291880    -0.23900
H479        H  0.50364900  0.67228244  0.20970593     0.05200
H480        H  0.52499435  0.69631424  0.19645446     0.08500
H481        H  0.51864577  0.68968805  0.24689535     0.08500
H482        H  0.57391998  0.64324349  0.19455785     0.08500
H483        H  0.56864745  0.63804261  0.24586568     0.08500
H484        H  0.58930637  0.66170111  0.22986824     0.05200
C485        C  0.45285169  0.51675697  0.06868103    -0.20600
C486        C  0.44921778  0.52623765  0.03727517    -0.07100
C487        C  0.45633935  0.54728438  0.03924753     0.13700
C488        C  0.46765264  0.55827939  0.07161262    -0.20600
C489        C  0.47198195  0.54890857  0.10235083    -0.07100
C490        C  0.46399747  0.52766054  0.10111736     0.13700
C491        C  0.46733878  0.51616088  0.13321330    -0.24000
H492        H  0.44721607  0.50062426  0.06760484     0.15000
H493        H  0.47349384  0.57444942  0.07251594     0.15000
C494        C  0.45261465  0.55849174  0.00718428    -0.23900
H495        H  0.45973001  0.49968581  0.12724124     0.05200
H496        H  0.46091432  0.51808629  0.16059126     0.08500
H497        H  0.48387228  0.52162271  0.13666467     0.08500
H498        H  0.43597278  0.55217251  0.00305984     0.08500
H499        H  0.45961249  0.55721807  0.48001274     0.08500
H500        H  0.45935957  0.57483940  0.01370727     0.05200
C501        C  0.47758839  0.54387099  0.35396262    -0.20600
C502        C  0.45620803  0.53303699  0.35093760    -0.07100
C503        C  0.44699553  0.53469752  0.31645142     0.13700
C504        C  0.45940606  0.54672920  0.28601154    -0.20600
C505        C  0.48077890  0.55668207  0.28837334    -0.07100
C506        C  0.48998357  0.55542924  0.32312651     0.13700
C507        C  0.51280717  0.56617972  0.32817402    -0.24000
H508        H  0.48475439  0.54284946  0.38037813     0.15000
H509        H  0.45230868  0.54765430  0.25941241     0.15000
C510        C  0.42422105  0.52323637  0.31054406    -0.23900
H511        H  0.51722327  0.56442618  0.35794722     0.05200
H512        H  0.51935237  0.58259649  0.32242720     0.08500
H513        H  0.51955977  0.55980316  0.30816378     0.08500
H514        H  0.41673118  0.52800574  0.33229083     0.08500
H515        H  0.41841522  0.50673288  0.31309793     0.08500
H516        H  0.41984707  0.52607872  0.28152418     0.05200
C517        C  0.34889061  0.45390906  0.42502288    -0.20600
C518        C  0.36167706  0.46314386  0.45678814    -0.07100
C519        C  0.35299903  0.46231281  0.49327110     0.13700
C520        C  0.33165998  0.45201017  0.49714550    -0.20600
C521        C  0.31882258  0.44203740  0.46566365    -0.07100
C522        C  0.32759383  0.44318071  0.42900395     0.13700
C523        C  0.31468797  0.43360959  0.39365609    -0.24000
H524        H  0.35564296  0.45476169  0.39704700     0.15000
H525        H  0.32496585  0.45134552  0.02506651     0.15000
C526        C  0.36613267  0.47267777  0.02790174    -0.23900
H527        H  0.32411140  0.43710520  0.36717847     0.05200
H528        H  0.30392671  0.43937534  0.38934112     0.08500
H529        H  0.30605162  0.41691907  0.39693893     0.08500
H530        H  0.37625150  0.48900542  0.02157414     0.08500
H531        H  0.37555224  0.46569740  0.03525530     0.08500
H532        H  0.35683207  0.47135902  0.05363954     0.05200
C533        C  0.59037949  0.81656002  0.36253914    -0.20600
C534        C  0.57900857  0.80697137  0.39567159    -0.07100
C535        C  0.56584934  0.78573917  0.39522887     0.13700
C536        C  0.56509276  0.77469284  0.36223677    -0.20600
C537        C  0.57728312  0.78418330  0.32975170    -0.07100
C538        C  0.58981006  0.80557236  0.32972623     0.13700
C539        C  0.60337739  0.81710966  0.29617948    -0.24000
H540        H  0.60030783  0.83282377  0.36272252     0.15000
H541        H  0.55544151  0.75839524  0.36243371     0.15000
C542        C  0.55337480  0.77439858  0.42996610    -0.23900
H543        H  0.61198870  0.83366045  0.30152291     0.05200
H544        H  0.59401618  0.81457900  0.26983096     0.08500
H545        H  0.61474765  0.81219102  0.29123864     0.08500
H546        H  0.54233431  0.77949370  0.43688448     0.08500
H547        H  0.56356833  0.77706188  0.45508200     0.08500
H548        H  0.54453834  0.75783482  0.42485113     0.05200
C549        C  0.56832647  0.79457968  0.10728807    -0.20600
C550        C  0.58430859  0.80062985  0.08069772    -0.07100
C551        C  0.59818992  0.79337398  0.08523627     0.13700
C552        C  0.59615343  0.78106840  0.11703420    -0.20600
C553        C  0.58065100  0.77566523  0.14445273    -0.07100
C554        C  0.56617857  0.78208658  0.13888290     0.13700
C555        C  0.54875358  0.77643543  0.16642538    -0.24000
H556        H  0.55751177  0.79985651  0.10360787     0.15000
H557        H  0.60710036  0.77597117  0.12095338     0.15000
C558        C  0.61560486  0.79889550  0.05767966    -0.23900
H559        H  0.53911123  0.78296193  0.15749416     0.05200
H560        H  0.55473390  0.78220138  0.19575080     0.08500
H561        H  0.53883820  0.75974363  0.16727956     0.08500
H562        H  0.62575927  0.81556073  0.05700166     0.08500
H563        H  0.60958304  0.79324983  0.02832267     0.08500
H564        H  0.62501933  0.79207752  0.06636456     0.05200
C565        C  0.56704909  0.88957119  0.46303436    -0.20600
C566        C  0.55681255  0.87003234  0.47908338    -0.07100
C567        C  0.53559479  0.86088517  0.48650335     0.13700
C568        C  0.52530766  0.87140793  0.47691409    -0.20600
C569        C  0.53565414  0.89088240  0.46083022    -0.07100
C570        C  0.55679235  0.90007212  0.45374496     0.13700
C571        C  0.56849994  0.92056489  0.43477000    -0.24000
H572        H  0.58324889  0.89669183  0.45726876     0.15000
H573        H  0.50909396  0.86449458  0.48244384     0.15000
C574        C  0.52354168  0.84006250  0.50398978    -0.23900
H575        H  0.58463226  0.92487483  0.92933822     0.05200
H576        H  0.56854998  0.93232087  0.95353286     0.08500
H577        H  0.56140718  0.92039626  0.40654419     0.08500
H578        H  0.52956032  0.83986987  0.53317059     0.08500
H579        H  0.52449317  0.82880711  0.48520544     0.08500
H580        H  0.50716596  0.83537185  0.50720475     0.05200
C581        C  0.43892741  0.89774458  0.07486006    -0.20600
C582        C  0.44846525  0.91175492  0.10481343    -0.07100
C583        C  0.46980309  0.92529619  0.10280432     0.13700
C584        C  0.48069622  0.92481698  0.07056720    -0.20600
C585        C  0.47096995  0.91156892  0.03978581    -0.07100
C586        C  0.44982303  0.89755493  0.04225632     0.13700
C587        C  0.43832936  0.88312865  0.50989509    -0.24000
H588        H  0.42266210  0.88733261  0.07624208     0.15000
H589        H  0.49690720  0.93543726  0.06874747     0.15000
C590        C  0.48128435  0.94103399  0.13329619    -0.23900
H591        H  0.42179082  0.87384645  0.51627193     0.05200
H592        H  0.44428529  0.87261041  0.50544334     0.08500
H593        H  0.43996838  0.89172036  0.48289301     0.08500
H594        H  0.47997493  0.93358445  0.16158302     0.08500
H595        H  0.47514833  0.95153751  0.13535665     0.08500
H596        H  0.49777707  0.95029528  0.12649818     0.05200
C597        C  0.44541592  0.89982757  0.29046663    -0.20600
C598        C  0.43723580  0.91279278  0.29113374    -0.07100
C599        C  0.44009317  0.92459120  0.32447913     0.13700
C600        C  0.45172391  0.92365878  0.35532919    -0.20600
C601        C  0.46099070  0.91160241  0.35364695    -0.07100
C602        C  0.45744416  0.89924270  0.32082833     0.13700
C603        C  0.46658503  0.88572389  0.31673603    -0.24000
H604        H  0.44318309  0.89069498  0.26505683     0.15000
H605        H  0.45414944  0.93301360  0.38046660     0.15000
C606        C  0.43098538  0.93816924  0.32800649    -0.23900
H607        H  0.46164736  0.87679656  0.28964422     0.05200
H608        H  0.46171880  0.87486331  0.34121407     0.08500
H609        H  0.48346663  0.89499388  0.31591052     0.08500
H610        H  0.41423922  0.92923964  0.32351573     0.08500
H611        H  0.43790978  0.95057163  0.30642044     0.08500
H612        H  0.43377516  0.94527424  0.35696789     0.05200
C613        C  0.31791189  0.85431730  0.21424493    -0.20600
C614        C  0.30754213  0.86530696  0.21512480    -0.07100
C615        C  0.31862713  0.88646663  0.20879639     0.13700
C616        C  0.33965254  0.89597098  0.20195989    -0.20600
C617        C  0.35007661  0.88505734  0.20111940    -0.07100
C618        C  0.33898472  0.86384814  0.20699521     0.13700
C619        C  0.34919095  0.85118762  0.20663783    -0.24000
H620        H  0.30942685  0.83810720  0.21896839     0.15000
H621        H  0.34807211  0.91219253  0.19736998     0.15000
C622        C  0.30869600  0.89937899  0.21057306    -0.23900
H623        H  0.33826324  0.83503425  0.21302294     0.05200
H624        H  0.36140417  0.85675875  0.22884706     0.08500
H625        H  0.35579105  0.85193431  0.17770447     0.08500
H626        H  0.30111131  0.89733181  0.23894950     0.08500
H627        H  0.29736601  0.89520249  0.18695584     0.08500
H628        H  0.31996900  0.91571265  0.20715036     0.05200
C629        C  0.22031201  0.42750318  0.38382908    -0.20600
C630        C  0.23146116  0.41734775  0.38104070    -0.07100
C631        C  0.23220406  0.40898857  0.34503198     0.13700
C632        C  0.22067373  0.40981346  0.31386109    -0.20600
C633        C  0.20846611  0.41883294  0.31742932    -0.07100
C634        C  0.20877979  0.42832268  0.35267730     0.13700
C635        C  0.19625181  0.43847062  0.35850243    -0.24000
H636        H  0.21988728  0.43413075  0.41120264     0.15000
H637        H  0.22080544  0.40288585  0.28665826     0.15000
C638        C  0.24517102  0.39931491  0.33898398    -0.23900
H639        H  0.19797590  0.44460918  0.38815283     0.05200
H640        H  0.17985171  0.42741092  0.35391897     0.08500
H641        H  0.20124791  0.45129700  0.33798276     0.08500
H642        H  0.23933025  0.38535527  0.35664614     0.08500
H643        H  0.26121953  0.41010532  0.34705510     0.08500
H644        H  0.24502643  0.39497467  0.30836404     0.05200
C645        C  0.19033229  0.40835464  0.09913908    -0.20600
C646        C  0.20035569  0.41631026  0.13429432    -0.07100
C647        C  0.22177808  0.42488410  0.13632879     0.13700
C648        C  0.23247154  0.42465748  0.10344426    -0.20600
C649        C  0.22235922  0.41613163  0.06857322    -0.07100
C650        C  0.20103359  0.40828640  0.06618034     0.13700
C651        C  0.18943233  0.40016449  0.02895270    -0.24000
H652        H  0.17395583  0.40201050  0.09752004     0.15000
H653        H  0.24877972  0.43061304  0.10535542     0.15000
C654        C  0.23340424  0.43351233  0.17335402    -0.23900
H655        H  0.17323898  0.39620648  0.03178918     0.05200
H656        H  0.18953683  0.38622338  0.02036662     0.08500
H657        H  0.19643032  0.41176794  0.00584696     0.08500
H658        H  0.22729544  0.42182737  0.19645485     0.08500
H659        H  0.23205900  0.44675963  0.18226262     0.08500
H660        H  0.24988423  0.43869395  0.17003206     0.05200
C661        C  0.13336046  0.44499763  0.16999593    -0.20600
C662        C  0.13548175  0.44052716  0.20857115    -0.07100
C663        C  0.12655001  0.44627824  0.23809958     0.13700
C664        C  0.11563700  0.45611675  0.22829978    -0.20600
C665        C  0.11363417  0.46079488  0.18981129    -0.07100
C666        C  0.12283219  0.45530037  0.16022945     0.13700
C667        C  0.12133032  0.45980875  0.11831890    -0.24000
H668        H  0.14018021  0.44057074  0.14734279     0.15000
H669        H  0.10866888  0.46028852  0.25108415     0.15000
C670        C  0.12783834  0.44153383  0.27996457    -0.23900
H671        H  0.12887641  0.45386539  0.09918696     0.05200
H672        H  0.12893938  0.47640724  0.11371085     0.08500
H673        H  0.10507283  0.45268775  0.10956512     0.08500
H674        H  0.14394760  0.44975032  0.28975981     0.08500
H675        H  0.12150367  0.42500284  0.28376138     0.08500
H676        H  0.11908861  0.44620477  0.29886173     0.05200
C677        C  0.18201557  0.78097783  0.36444205    -0.20600
C678        C  0.18927360  0.76983642  0.38468164    -0.07100
C679        C  0.20768243  0.77092076  0.37255404     0.13700
C680        C  0.21829526  0.78325646  0.34087551    -0.20600
C681        C  0.21118309  0.79470881  0.32136433    -0.07100
C682        C  0.19282620  0.79363230  0.33353288     0.13700
C683        C  0.18500621  0.80659702  0.31576720    -0.24000
H684        H  0.16810351  0.78044076  0.37379473     0.15000
H685        H  0.23238433  0.78415932  0.33154329     0.15000
C686        C  0.21639761  0.75933363  0.39266132    -0.23900
H687        H  0.17125149  0.80476138  0.33086141     0.05200
H688        H  0.18071547  0.80230660  0.28517414     0.08500
H689        H  0.19691152  0.82280370  0.31759003     0.08500
H690        H  0.20503584  0.74292763  0.39263202     0.08500
H691        H  0.22063954  0.76476249  0.42277404     0.08500
H692        H  0.23037315  0.76138903  0.37812503     0.05200
C693        C  0.19943529  0.76689872  0.10610683    -0.20600
C694        C  0.19951516  0.77645460  0.07126032    -0.07100
C695        C  0.21138462  0.79788521  0.06887286     0.13700
C696        C  0.22169070  0.80899992  0.10178390    -0.20600
C697        C  0.22081792  0.79947145  0.13696302    -0.07100
C698        C  0.20987765  0.77807855  0.13894960     0.13700
C699        C  0.20821104  0.76688771  0.17598448    -0.24000
H700        H  0.19055219  0.75056427  0.10815138     0.15000
H701        H  0.23028789  0.82536966  0.10019626     0.15000
C702        C  0.21321071  0.80942600  0.03219783    -0.23900
H703        H  0.19837536  0.75027916  0.17259351     0.05200
H704        H  0.20145579  0.77184417  0.19892466     0.08500
H705        H  0.22352690  0.76984536  0.18514189     0.08500
H706        H  0.19815223  0.80752834  0.02407531     0.08500
H707        H  0.21914730  0.80398963  0.00859536     0.08500
H708        H  0.22387549  0.82590202  0.03553124     0.05200
C709        C  0.07042197  0.54762175  0.04998080    -0.20600
C710        C  0.08680712  0.55506308  0.02402711    -0.07100
C711        C  0.10339979  0.55195497  0.03237013     0.13700
C712        C  0.10224301  0.54005672  0.06449243    -0.20600
C713        C  0.08503179  0.53122304  0.08863440    -0.07100
C714        C  0.06922362  0.53578614  0.08198664     0.13700
C715        C  0.05062302  0.52788805  0.10742819    -0.24000
H716        H  0.05795573  0.55046014  0.04443712     0.15000
H717        H  0.11463531  0.53710963  0.07001741     0.15000
C718        C  0.12211468  0.56054167  0.00725068    -0.23900
H719        H  0.04021338  0.53344073  0.09804427     0.05200
H720        H  0.05530223  0.53304125  0.13757676     0.08500
H721        H  0.04180757  0.51111834  0.10629621     0.08500
H722        H  0.12935491  0.57727156  0.00605414     0.08500
H723        H  0.11791927  0.55418032  0.97771092     0.08500
H724        H  0.13362505  0.55684454  0.01862306     0.05200
C725        C  0.08041895  0.51389898  0.30320778    -0.20600
C726        C  0.08784203  0.52355130  0.26763529    -0.07100
C727        C  0.09578700  0.54467344  0.26476908     0.13700
C728        C  0.09566411  0.55546900  0.29746422    -0.20600
C729        C  0.08768253  0.54574200  0.33299084    -0.07100
C730        C  0.08025163  0.52460551  0.33591438     0.13700
C731        C  0.07171444  0.51291426  0.37290685    -0.24000
H732        H  0.07436452  0.49770529  0.30524755     0.15000
H733        H  0.10131631  0.57156558  0.29485477     0.15000
C734        C  0.10339981  0.55577307  0.22694395    -0.23900
H735        H  0.06716001  0.49671387  0.36974394     0.05200
H736        H  0.05790090  0.51349600  0.38154513     0.08500
H737        H  0.08340770  0.51930144  0.39607076     0.08500
H738        H  0.09112402  0.54906908  0.20486547     0.08500
H739        H  0.11680629  0.55478837  0.21700728     0.08500
H740        H  0.10818377  0.57204995  0.22961481     0.05200
C741        C  0.12960107  0.64969223  0.44703380    -0.20600
C742        C  0.10851197  0.63971468  0.44019483    -0.07100
C743        C  0.09812710  0.65083581  0.44226162     0.13700
C744        C  0.10902843  0.67138363  0.45216172    -0.20600
C745        C  0.13003857  0.68127512  0.46013074    -0.07100
C746        C  0.14051018  0.67026121  0.45701732     0.13700
C747        C  0.16317662  0.67999054  0.46338726    -0.24000
H748        H  0.13759689  0.64123649  0.44517041     0.15000
H749        H  0.10096161  0.67977181  0.45392045     0.15000
C750        C  0.07570674  0.64144512  0.43317035    -0.23900
H751        H  0.16879500  0.66923098  0.45829861     0.05200
H752        H  0.16699519  0.68532405  0.99360113     0.08500
H753        H  0.17133105  0.69290158  0.44315111     0.08500
H754        H  0.06656380  0.62960121  0.45479665     0.08500
H755        H  0.07258622  0.63475665  0.40381056     0.08500
H756        H  0.07054562  0.65276520  0.43385305     0.05200
C757        C  0.99722887  0.43239373  0.07796959    -0.20600
C758        C  0.98077800  0.42578323  0.10363799    -0.07100
C759        C  0.98479842  0.42808168  0.14385771     0.13700
C760        C  0.00509404  0.43811528  0.15692202    -0.20600
C761        C  0.02158368  0.44589968  0.13111179    -0.07100
C762        C  0.01753020  0.44230942  0.09105813     0.13700
C763        C  0.03437540  0.44966317  0.06157978    -0.24000
H764        H  0.99420335  0.43037613  0.04722687     0.15000
H765        H  0.00810578  0.44058189  0.18761334     0.15000
C766        C  0.96795886  0.42101428  0.17330847    -0.23900
H767        H  0.02832200  0.44555068  0.03173004     0.05200
H768        H  0.04398667  0.44269473  0.06726439     0.08500
H769        H  0.04384769  0.46639635  0.06278423     0.08500
H770        H  0.95789541  0.40438086  0.17123151     0.08500
H771        H  0.95894236  0.42869311  0.16837760     0.08500
H772        H  0.97399886  0.42446098  0.20326130     0.05200
C773        C  0.88780509  0.31329203  0.04501180    -0.20600
C774        C  0.86852028  0.30471402  0.02736031    -0.07100
C775        C  0.86051607  0.31743967  0.01727213     0.13700
C776        C  0.87195108  0.33821990  0.02538331    -0.20600
C777        C  0.89126348  0.34670752  0.04268800    -0.07100
C778        C  0.89927959  0.33405958  0.05272216     0.13700
C779        C  0.91957061  0.34215621  0.07284180    -0.24000
H780        H  0.89401668  0.30367441  0.05292561     0.15000
H781        H  0.86587787  0.34798947  0.01769298     0.15000
C782        C  0.83989508  0.30937543  0.99855817    -0.23900
H783        H  0.92282693  0.32990000  0.08064229     0.05200
H784        H  0.91960574  0.34995479  0.09986432     0.08500
H785        H  0.93202898  0.35287458  0.05364721     0.08500
H786        H  0.82793860  0.29770914  0.01739735     0.08500
H787        H  0.83976592  0.30277143  0.46998563     0.08500
H788        H  0.83598978  0.32145814  0.99371638     0.05200
C789        C  0.90272502  0.44440617  0.21020051    -0.20600
C790        C  0.91569128  0.46544925  0.20903427    -0.07100
C791        C  0.92691347  0.47448001  0.17497663     0.13700
C792        C  0.92579908  0.46210827  0.14418282    -0.20600
C793        C  0.91409997  0.44090862  0.14646667    -0.07100
C794        C  0.90189976  0.43197402  0.17963453     0.13700
C795        C  0.88844335  0.40941690  0.18389166    -0.24000
H796        H  0.89387828  0.43749711  0.23604366     0.15000
H797        H  0.93481064  0.46912697  0.11857137     0.15000
C798        C  0.94017388  0.49708999  0.17060340    -0.23900
H799        H  0.87983284  0.40527880  0.21147618     0.05200
H800        H  0.89786942  0.40198640  0.18370131     0.08500
H801        H  0.87716293  0.40348676  0.15998250     0.08500
H802        H  0.95328004  0.50284724  0.19083009     0.08500
H803        H  0.93107082  0.50457733  0.17633490     0.08500
H804        H  0.94653504  0.50141675  0.14100591     0.05200
C805        C  0.90105701  0.44945477  0.42009708    -0.20600
C806        C  0.91588590  0.45438534  0.39138878    -0.07100
C807        C  0.92942941  0.44663858  0.39457880     0.13700
C808        C  0.92857868  0.43538651  0.42734819    -0.20600
C809        C  0.91490122  0.43188788  0.45756024    -0.07100
C810        C  0.90047309  0.43850058  0.45330155     0.13700
C811        C  0.88492909  0.43488077  0.98397894    -0.24000
H812        H  0.89049207  0.45509923  0.41755642     0.15000
H813        H  0.93930187  0.42993911  0.43001769     0.15000
C814        C  0.94513650  0.45031112  0.36414678    -0.23900
H815        H  0.87508870  0.44131526  0.47573894     0.05200
H816        H  0.89275520  0.44229560  0.01129388     0.08500
H817        H  0.87490684  0.41839480  0.98876687     0.08500
H818        H  0.95680242  0.46660078  0.36304494     0.08500
H819        H  0.93761863  0.44524929  0.33557177     0.08500
H820        H  0.95329046  0.44187321  0.37035246     0.05200
C821        C  0.98317383  0.53704049  0.38970717    -0.20600
C822        C  0.98056187  0.53914021  0.35019759    -0.07100
C823        C  0.99769469  0.55197968  0.32745842     0.13700
C824        C  0.01713330  0.56132657  0.34443365    -0.20600
C825        C  0.01995187  0.55793593  0.38336280    -0.07100
C826        C  0.00257843  0.54601576  0.40659196     0.13700
C827        C  0.00409846  0.54210175  0.44887273    -0.24000
H828        H  0.96997461  0.52730478  0.40716422     0.15000
H829        H  0.03028782  0.57076284  0.32665759     0.15000
C830        C  0.99565960  0.55606303  0.28552471    -0.23900
H831        H  0.98884474  0.53307193  0.46238620     0.05200
H832        H  0.01228925  0.55666979  0.46460218     0.08500
H833        H  0.01218690  0.53341390  0.45252616     0.08500
H834        H  0.98489998  0.56191745  0.28260569     0.08500
H835        H  0.99005342  0.54202339  0.26840577     0.08500
H836        H  0.01050679  0.56750096  0.27301601     0.05200
C837        C  0.87605598  0.54338795  0.25563397    -0.20600
C838        C  0.87150452  0.55104980  0.28854187    -0.07100
C839        C  0.87663577  0.54682394  0.32541911     0.13700
C840        C  0.88635265  0.53524870  0.32829971    -0.20600
C841        C  0.89147949  0.52810946  0.29530803    -0.07100
C842        C  0.88613394  0.53216380  0.25841504     0.13700
C843        C  0.89058510  0.52447503  0.22175261    -0.24000
H844        H  0.87202249  0.54652630  0.22742352     0.15000
H845        H  0.89033154  0.53209542  0.35654715     0.15000
C846        C  0.87154166  0.55402335  0.36195555    -0.23900
H847        H  0.88425901  0.52812538  0.19593717     0.05200
H848        H  0.88364486  0.50777669  0.22323178     0.08500
H849        H  0.90729684  0.53161086  0.21749615     0.08500
H850        H  0.85491975  0.54852460  0.36302594     0.08500
H851        H  0.88014615  0.57078929  0.36306013     0.08500
H852        H  0.87563965  0.54835207  0.38813927     0.05200
C853        C  0.77559438  0.58448906  0.15934547    -0.20600
C854        C  0.77645939  0.57521178  0.12503266    -0.07100
C855        C  0.78771463  0.56491375  0.12458135     0.13700
C856        C  0.79869363  0.56522575  0.15763557    -0.20600
C857        C  0.79891744  0.57566973  0.19107762    -0.07100
C858        C  0.78662825  0.58485328  0.19235156     0.13700
C859        C  0.78497258  0.59505861  0.22824073    -0.24000
H860        H  0.76665896  0.59202060  0.16001072     0.15000
H861        H  0.80798528  0.55808092  0.15664470     0.15000
C862        C  0.78918860  0.55445261  0.08891817    -0.23900
H863        H  0.77343093  0.59991350  0.22489667     0.05200
H864        H  0.79977724  0.60878270  0.23454862     0.08500
H865        H  0.78033644  0.58441723  0.25307082     0.08500
H866        H  0.79571349  0.56545217  0.06472988     0.08500
H867        H  0.77383205  0.54197993  0.08084123     0.08500
H868        H  0.79914522  0.54776876  0.09355749     0.05200
C869        C  0.80728032  0.59623807  0.43274364    -0.20600
C870        C  0.78833237  0.57894163  0.43970256    -0.07100
C871        C  0.78170129  0.56211263  0.41486100     0.13700
C872        C  0.79391835  0.56338730  0.38319681    -0.20600
C873        C  0.81242532  0.58113225  0.37508614    -0.07100
C874        C  0.81922519  0.59776442  0.40068129     0.13700
C875        C  0.83863796  0.61755174  0.39413688    -0.24000
H876        H  0.81244895  0.60917940  0.45166939     0.15000
H877        H  0.78865564  0.55053518  0.36402517     0.15000
C878        C  0.76186900  0.54278050  0.42137224    -0.23900
H879        H  0.84132029  0.62875888  0.41705627     0.05200
H880        H  0.83775427  0.62431382  0.36624940     0.08500
H881        H  0.85189928  0.61506594  0.39419642     0.08500
H882        H  0.74887094  0.54553597  0.41780821     0.08500
H883        H  0.76165739  0.53688750  0.45084416     0.08500
H884        H  0.75968998  0.53089564  0.40037913     0.05200
C885        C  0.66007387  0.54499113  0.07597411    -0.20600
C886        C  0.64764747  0.53398681  0.04491948    -0.07100
C887        C  0.65672197  0.53292181  0.01009170     0.13700
C888        C  0.67810786  0.54310044  0.00715576    -0.20600
C889        C  0.69061309  0.55483664  0.03776754    -0.07100
C890        C  0.68139188  0.55574084  0.07270201     0.13700
C891        C  0.69378482  0.56775020  0.10697650    -0.24000
H892        H  0.65300063  0.54565169  0.10266658     0.15000
H893        H  0.68508971  0.54227120  0.48048666     0.15000
C894        C  0.64395750  0.52075461  0.47633087    -0.23900
H895        H  0.68402663  0.56579885  0.13234844     0.05200
H896        H  0.70216834  0.58410766  0.09972657     0.08500
H897        H  0.70471178  0.56270188  0.11550869     0.08500
H898        H  0.63454510  0.52717876  0.46551408     0.08500
H899        H  0.63383987  0.50480810  0.48535991     0.08500
H900        H  0.65353820  0.52084006  0.45203263     0.05200
C901        C  0.57479287  0.55415069  0.14110557    -0.20600
C902        C  0.57188894  0.55020518  0.10126426    -0.07100
C903        C  0.56191422  0.55858955  0.07970248     0.13700
C904        C  0.55366464  0.56905532  0.09905300    -0.20600
C905        C  0.55450632  0.57087849  0.13949819    -0.07100
C906        C  0.56606158  0.56411117  0.16058146     0.13700
C907        C  0.56903267  0.56692214  0.20364074    -0.24000
H908        H  0.58290582  0.54830107  0.15771229     0.15000
H909        H  0.54528054  0.57465097  0.08258228     0.15000
C910        C  0.55945010  0.55629666  0.03650895    -0.23900
H911        H  0.57977518  0.56211334  0.21466496     0.05200
H912        H  0.55432209  0.55764568  0.21876680     0.08500
H913        H  0.57539419  0.58312896  0.21096492     0.08500
H914        H  0.54935250  0.54017514  0.02889938     0.08500
H915        H  0.57458996  0.56207424  0.02273803     0.08500
H916        H  0.55243346  0.56491295  0.02434690     0.05200
C917        C  0.54940661  0.45062150  0.21040598    -0.20600
C918        C  0.52805667  0.44131069  0.20914350    -0.07100
C919        C  0.51860507  0.44311061  0.17519437     0.13700
C920        C  0.53081290  0.45480583  0.14425709    -0.20600
C921        C  0.55222570  0.46497794  0.14631412    -0.07100
C922        C  0.56162373  0.46247693  0.17974546     0.13700
C923        C  0.58446418  0.47265689  0.18429406    -0.24000
H924        H  0.55671990  0.44922461  0.23628417     0.15000
H925        H  0.52351213  0.45640244  0.11855679     0.15000
C926        C  0.49575429  0.43281117  0.17108993    -0.23900
H927        H  0.58894094  0.46898651  0.21245499     0.05200
H928        H  0.59122369  0.48933155  0.18290822     0.08500
H929        H  0.59097387  0.46751255  0.16124340     0.08500
H930        H  0.48943887  0.43917733  0.19210925     0.08500
H931        H  0.48897583  0.41630157  0.17604337     0.08500
H932        H  0.49112091  0.43500126  0.14180363     0.05200
C933        C  0.56116437  0.48180567  0.42803942    -0.20600
C934        C  0.56210233  0.47197118  0.46163575    -0.07100
C935        C  0.55377717  0.45071608  0.46094049     0.13700
C936        C  0.54300897  0.43980699  0.42807387    -0.20600
C937        C  0.54092722  0.44956133  0.39528097    -0.07100
C938        C  0.55109365  0.47102824  0.39470595     0.13700
C939        C  0.55144284  0.48293171  0.35951376    -0.24000
H940        H  0.56817388  0.49814031  0.42799585     0.15000
H941        H  0.53577401  0.42346139  0.42840678     0.15000
C942        C  0.55567218  0.43927368  0.49479847    -0.23900
H943        H  0.56111986  0.49948833  0.36396793     0.05200
H944        H  0.53583323  0.47992620  0.35273411     0.08500
H945        H  0.55781388  0.47880610  0.33458426     0.08500
H946        H  0.54840659  0.44147404  0.02067339     0.08500
H947        H  0.57202092  0.44467664  0.50073542     0.08500
H948        H  0.54815296  0.42277569  0.48910388     0.05200
C949        C  0.44443768  0.43229541  0.34503765    -0.20600
C950        C  0.46064137  0.43220388  0.36459951    -0.07100
C951        C  0.46585637  0.44045876  0.40215600     0.13700
C952        C  0.45535620  0.44943054  0.41831465    -0.20600
C953        C  0.43992184  0.45067909  0.39796031    -0.07100
C954        C  0.43378823  0.44117858  0.36136431     0.13700
C955        C  0.41641647  0.44059556  0.33885141    -0.24000
H956        H  0.44033386  0.42567632  0.31647578     0.15000
H957        H  0.45994747  0.45636390  0.44653895     0.15000
C958        C  0.48336089  0.44112540  0.42447695    -0.23900
H959        H  0.41336481  0.43184633  0.31169545     0.05200
H960        H  0.42009699  0.45615673  0.33083099     0.08500
H961        H  0.40228305  0.43322266  0.35644025     0.08500
H962        H  0.49765354  0.44932110  0.40749718     0.08500
H963        H  0.48015669  0.42553768  0.43081632     0.08500
H964        H  0.48586888  0.44903995  0.45252029     0.05200
C965        C  0.46454486  0.32126458  0.27242425    -0.20600
C966        C  0.44396650  0.31063788  0.28390098    -0.07100
C967        C  0.43527142  0.32162258  0.30035881     0.13700
C968        C  0.44743684  0.34256704  0.30558221    -0.20600
C969        C  0.46803152  0.35305270  0.29482572    -0.07100
C970        C  0.47666176  0.34229046  0.27757921     0.13700
C971        C  0.49834232  0.35290427  0.26328388    -0.24000
H972        H  0.47127098  0.31307981  0.25935400     0.15000
H973        H  0.44078111  0.35087564  0.31844164     0.15000
C974        C  0.41318034  0.31169089  0.31219098    -0.23900
H975        H  0.50223283  0.34229286  0.24883286     0.05200
H976        H  0.50901127  0.35987153  0.28786500     0.08500
H977        H  0.50057239  0.36479560  0.24206224     0.08500
H978        H  0.41006672  0.30052125  0.33556195     0.08500
H979        H  0.40323864  0.30412789  0.28691009     0.08500
H980        H  0.40906681  0.32282350  0.32335472     0.05200
C981        C  0.40912308  0.18145885  0.15501917    -0.20600
C982        C  0.41953403  0.19150078  0.12128651    -0.07100
C983        C  0.43064838  0.21292719  0.12091744     0.13700
C984        C  0.43012485  0.22359654  0.15342244    -0.20600
C985        C  0.41884059  0.21357335  0.18647101    -0.07100
C986        C  0.40875796  0.19212000  0.18770995     0.13700
C987        C  0.39747773  0.18016631  0.22300442    -0.24000
H988        H  0.40088793  0.16506921  0.15558724     0.15000
H989        H  0.43811639  0.23997472  0.15243101     0.15000
C990        C  0.44238843  0.22480020  0.08593768    -0.23900
H991        H  0.39155410  0.16370782  0.21923440     0.05200
H992        H  0.38419783  0.18220493  0.22881603     0.08500
H993        H  0.40790615  0.18516926  0.24829550     0.08500
H994        H  0.43196261  0.22092469  0.06079439     0.08500
H995        H  0.45468691  0.22136100  0.07934061     0.08500
H996        H  0.44968304  0.24137072  0.09059846     0.05200
C997        C  0.43181544  0.20280113  0.40411161    -0.20600
C998        C  0.41970189  0.20095614  0.43625949    -0.07100
C999        C  0.40920529  0.21205551  0.43663786     0.13700
C1000       C  0.41022288  0.22359681  0.40423168    -0.20600
C1001       C  0.42136213  0.22448986  0.37131311    -0.07100
C1002       C  0.43278901  0.21437271  0.37164440     0.13700
C1003       C  0.44530913  0.21486339  0.33744296    -0.24000
H1004       H  0.44008411  0.19458502  0.40377110     0.15000
H1005       H  0.40169645  0.23156303  0.40418859     0.15000
C1006       C  0.39641072  0.21159357  0.47036425    -0.23900
H1007       H  0.45291605  0.20581528  0.34267001     0.05200
H1008       H  0.45740229  0.23066576  0.33150377     0.08500
H1009       H  0.43536472  0.20849707  0.31167835     0.08500
H1010       H  0.40594399  0.21691233  0.49684016     0.08500
H1011       H  0.38347449  0.19602437  0.47472296     0.08500
H1012       H  0.38981550  0.22158832  0.46562340     0.05200
C1013       C  0.44104309  0.09419241  0.03810106    -0.20600
C1014       C  0.46236109  0.10452006  0.04160138    -0.07100
C1015       C  0.47318161  0.12590986  0.03895833     0.13700
C1016       C  0.46231579  0.13632715  0.03441875    -0.20600
C1017       C  0.44092977  0.12599934  0.03256337    -0.07100
C1018       C  0.43019036  0.10457779  0.03362995     0.13700
C1019       C  0.40735056  0.09244041  0.02888400    -0.24000
H1020       H  0.43273032  0.07781071  0.03938721     0.15000
H1021       H  0.47059672  0.15270292  0.53275090     0.15000
C1022       C  0.49615463  0.13787735  0.53970023    -0.23900
H1023       H  0.40176045  0.07593943  0.02784854     0.05200
H1024       H  0.40280643  0.09674388  0.00148554     0.08500
H1025       H  0.39974271  0.09514336  0.05360610     0.08500
H1026       H  0.50240481  0.13249448  0.51656087     0.08500
H1027       H  0.50185971  0.13618429  0.06830901     0.08500
H1028       H  0.50199913  0.15426878  0.53489377     0.05200
C1029       C  0.44806859  0.01207649  0.14475303    -0.20600
C1030       C  0.44973602  0.01359664  0.10432741    -0.07100
C1031       C  0.43997929  0.99562766  0.08216165     0.13700
C1032       C  0.43020518  0.97679176  0.10108576    -0.20600
C1033       C  0.43004663  0.97526788  0.14155787    -0.07100
C1034       C  0.43848055  0.99324748  0.16366946     0.13700
C1035       C  0.43765500  0.99290710  0.20717225    -0.24000
H1036       H  0.45512460  0.02574687  0.16192316     0.15000
H1037       H  0.42343491  0.96310846  0.08394917     0.15000
C1038       C  0.43986434  0.99597865  0.03862983    -0.23900
H1039       H  0.44373062  0.00831322  0.21931771     0.05200
H1040       H  0.44703380  0.98668469  0.21910072     0.08500
H1041       H  0.42161461  0.98359822  0.21692194     0.08500
H1042       H  0.45556395  0.00199560  0.02741620     0.08500
H1043       H  0.43346960  0.00547657  0.02825245     0.08500
H1044       H  0.43038920  0.98060249  0.02638192     0.05200
C1045       C  0.55093228  0.99321618  0.41418975    -0.20600
C1046       C  0.54325419  0.97606143  0.39050635    -0.07100
C1047       C  0.54732896  0.97874738  0.35028937     0.13700
C1048       C  0.55786398  0.99841357  0.33492243    -0.20600
C1049       C  0.56446498  0.01551453  0.35838438    -0.07100
C1050       C  0.56143412  0.01285491  0.39882810     0.13700
C1051       C  0.56825241  0.03045295  0.42608288    -0.24000
H1052       H  0.54811655  0.99128005  0.44498980     0.15000
H1053       H  0.56035362  0.00043170  0.30403226     0.15000
C1054       C  0.54009450  0.96116602  0.32289347    -0.23900
H1055       H  0.56435395  0.02540911  0.45654200     0.05200
H1056       H  0.56064085  0.03926100  0.41853909     0.08500
H1057       H  0.58505684  0.04030932  0.42449780     0.08500
H1058       H  0.52319207  0.95206682  0.32328861     0.08500
H1059       H  0.54673880  0.95159341  0.33128396     0.08500
H1060       H  0.54479906  0.96624454  0.29267461     0.05200
C1061       C  0.55261971  0.09244377  0.41727026    -0.20600
C1062       C  0.54474452  0.07544078  0.39318485    -0.07100
C1063       C  0.52527162  0.05865589  0.40142738     0.13700
C1064       C  0.51449695  0.05928706  0.43367584    -0.20600
C1065       C  0.52252107  0.07606088  0.45837833    -0.07100
C1066       C  0.54181762  0.09303475  0.44970281     0.13700
C1067       C  0.55137039  0.11176984  0.47439056    -0.24000
H1068       H  0.56749075  0.10528810  0.41097371     0.15000
H1069       H  0.49978495  0.04624886  0.44009975     0.15000
C1070       C  0.51587330  0.03959611  0.37753855    -0.23900
H1071       H  0.56620033  0.12361583  0.46253510     0.05200
H1072       H  0.55428617  0.10801095  0.50387136     0.08500
H1073       H  0.54112291  0.11827372  0.47581821     0.08500
H1074       H  0.52608508  0.03302289  0.37727400     0.08500
H1075       H  0.51316814  0.04300113  0.34762404     0.08500
H1076       H  0.50093630  0.02788249  0.38924258     0.05200
C1077       C  0.53587266  0.09100616  0.17407207    -0.20600
C1078       C  0.53309594  0.07818052  0.14281728    -0.07100
C1079       C  0.54309617  0.06660839  0.14344546     0.13700
C1080       C  0.55421623  0.06711534  0.17627707    -0.20600
C1081       C  0.55595980  0.07900601  0.20833239    -0.07100
C1082       C  0.54715715  0.09159377  0.20680778     0.13700
C1083       C  0.54865754  0.10493037  0.24012527    -0.24000
H1084       H  0.52858015  0.10014893  0.17354634     0.15000
H1085       H  0.56129159  0.05776995  0.17725537     0.15000
C1086       C  0.54199875  0.05334348  0.11028029    -0.23900
H1087       H  0.54031766  0.11321704  0.23424648     0.05200
H1088       H  0.56486267  0.11635433  0.24545760     0.08500
H1089       H  0.54198168  0.09560059  0.26646814     0.08500
H1090       H  0.54779069  0.06256043  0.08355586     0.08500
H1091       H  0.52605511  0.04100004  0.10602001     0.08500
H1092       H  0.55142067  0.04612433  0.11560262     0.05200
C1093       C  0.77061838  0.19765561  0.14292261    -0.20600
C1094       C  0.78082121  0.19610676  0.17566462    -0.07100
C1095       C  0.80245472  0.20738457  0.17666062     0.13700
C1096       C  0.81309839  0.21861444  0.14414590    -0.20600
C1097       C  0.80293281  0.21907130  0.11062017    -0.07100
C1098       C  0.78137894  0.20900490  0.11039099     0.13700
C1099       C  0.76957343  0.20926685  0.07545684    -0.24000
H1100       H  0.75411179  0.18935278  0.14214733     0.15000
H1101       H  0.82962130  0.22665759  0.14447078     0.15000
C1102       C  0.81473063  0.20746109  0.21117465    -0.23900
H1103       H  0.75285244  0.20016814  0.08011490     0.05200
H1104       H  0.77340409  0.20286592  0.05021727     0.08500
H1105       H  0.77333774  0.22502372  0.06899058     0.08500
H1106       H  0.81244068  0.19207590  0.21614811     0.08500
H1107       H  0.81013693  0.21271723  0.23711458     0.08500
H1108       H  0.83133562  0.21776728  0.20695747     0.05200
C1109       C  0.79389160  0.21844904  0.39411182    -0.20600
C1110       C  0.79711025  0.20846915  0.42524650    -0.07100
C1111       C  0.78856788  0.18716190  0.42357171     0.13700
C1112       C  0.77780407  0.17671693  0.39051093    -0.20600
C1113       C  0.77493217  0.18672586  0.35918840    -0.07100
C1114       C  0.78289013  0.20790161  0.36119202     0.13700
C1115       C  0.78056669  0.21968446  0.32839750    -0.24000
H1116       H  0.80032887  0.23470320  0.39518309     0.15000
H1117       H  0.77162310  0.16050257  0.38904719     0.15000
C1118       C  0.79084029  0.17511027  0.45592576    -0.23900
H1119       H  0.78842047  0.23615776  0.33449814     0.05200
H1120       H  0.76418869  0.21457354  0.32368136     0.08500
H1121       H  0.78727040  0.21749537  0.30163637     0.08500
H1122       H  0.78404042  0.17705304  0.48278648     0.08500
H1123       H  0.80719839  0.18009298  0.46057875     0.08500
H1124       H  0.78294301  0.15867514  0.44945698     0.05200
C1125       C  0.65222475  0.12239550  0.28382732    -0.20600
C1126       C  0.64276849  0.10177186  0.29297951    -0.07100
C1127       C  0.65475558  0.09241337  0.29721338     0.13700
C1128       C  0.67586876  0.10388598  0.29130635    -0.20600
C1129       C  0.68539365  0.12446682  0.28104563    -0.07100
C1130       C  0.67334256  0.13390602  0.27777475     0.13700
C1131       C  0.68243612  0.15608434  0.26860793    -0.24000
H1132       H  0.64294502  0.12951573  0.28097861     0.15000
H1133       H  0.68496792  0.09659446  0.29440860     0.15000
C1134       C  0.64554047  0.07054112  0.30912040    -0.23900
H1135       H  0.67074023  0.16084270  0.26857925     0.05200
H1136       H  0.68946472  0.15939524  0.23949750     0.08500
H1137       H  0.69406549  0.16523303  0.29066149     0.08500
H1138       H  0.63492253  0.06059580  0.28645821     0.08500
H1139       H  0.63719536  0.06794111  0.33677614     0.08500
H1140       H  0.65735853  0.06611663  0.31337739     0.05200
C1141       C  0.66670980  0.78362698  0.34483906    -0.20600
C1142       C  0.68278275  0.78672925  0.32030735    -0.07100
C1143       C  0.67812450  0.77932902  0.28190841     0.13700
C1144       C  0.65781295  0.76991554  0.26894189    -0.20600
C1145       C  0.64190550  0.76753531  0.29307328    -0.07100
C1146       C  0.64640099  0.77414954  0.33187175     0.13700
C1147       C  0.63011635  0.77219662  0.35943533    -0.24000
H1148       H  0.67009975  0.78911948  0.37425771     0.15000
H1149       H  0.65437168  0.76474694  0.23931892     0.15000
C1150       C  0.69437932  0.78183107  0.25373761    -0.23900
H1151       H  0.63652207  0.77878978  0.38812407     0.05200
H1152       H  0.61875678  0.75599077  0.36398732     0.08500
H1153       H  0.62244515  0.78027416  0.34767932     0.08500
H1154       H  0.70243053  0.77402008  0.26488228     0.08500
H1155       H  0.70538792  0.79814532  0.24921018     0.08500
H1156       H  0.68787558  0.77520854  0.22511297     0.05200
C1157       C  0.80631448  0.79283179  0.38533736    -0.20600
C1158       C  0.79516918  0.77159666  0.38698123    -0.07100
C1159       C  0.77365864  0.76163582  0.38269796     0.13700
C1160       C  0.76406735  0.77314948  0.37720388    -0.20600
C1161       C  0.77523243  0.79431106  0.37480440    -0.07100
C1162       C  0.79670238  0.80431586  0.37892122     0.13700
C1163       C  0.80962685  0.82703625  0.37731632    -0.24000
H1164       H  0.82273866  0.80053586  0.38858933     0.15000
H1165       H  0.74763422  0.76546892  0.37404345     0.15000
C1166       C  0.76047393  0.73891981  0.38403764    -0.23900
H1167       H  0.82598183  0.83220415  0.38267554     0.05200
H1168       H  0.80450208  0.83391630  0.39965808     0.08500
H1169       H  0.80847053  0.83261146  0.34829401     0.08500
H1170       H  0.76268261  0.73304371  0.41194411     0.08500
H1171       H  0.76437564  0.73206486  0.35968007     0.08500
H1172       H  0.74400914  0.73398952  0.38138595     0.05200
C1173       C  0.78305913  0.66578456  0.42296825    -0.20600
C1174       C  0.78934059  0.68245889  0.44750697    -0.07100
C1175       C  0.78604089  0.67906848  0.48779275     0.13700
C1176       C  0.77695724  0.65920735  0.50226204    -0.20600
C1177       C  0.77108455  0.64258330  0.47777514    -0.07100
C1178       C  0.77406457  0.64595536  0.43744144     0.13700
C1179       C  0.76883341  0.62895064  0.40945879    -0.24000
H1180       H  0.78568900  0.66831618  0.39218466     0.15000
H1181       H  0.77480446  0.65666955  0.53312464     0.15000
C1182       C  0.79283073  0.69622851  0.51608315    -0.23900
H1183       H  0.77306807  0.63453894  0.37935513     0.05200
H1184       H  0.75217077  0.61821855  0.40986176     0.08500
H1185       H  0.77720450  0.62092062  0.41734760     0.08500
H1186       H  0.78471578  0.70472089  0.51016293     0.08500
H1187       H  0.80955684  0.70651102  0.51377465     0.08500
H1188       H  0.78945986  0.69072999  0.54637680     0.05200
C1189       C  0.88313546  0.73099065  0.02787314    -0.20600
C1190       C  0.88850220  0.74529381  0.05740364    -0.07100
C1191       C  0.88280823  0.76036585  0.05378376     0.13700
C1192       C  0.87159445  0.76035667  0.02119000    -0.20600
C1193       C  0.86592029  0.74574246  0.49206217    -0.07100
C1194       C  0.87184596  0.73083118  0.49563114     0.13700
C1195       C  0.86565382  0.71398450  0.46672304    -0.24000
H1196       H  0.88742829  0.71943248  0.03036624     0.15000
H1197       H  0.86701620  0.77170235  0.01867605     0.15000
C1198       C  0.88799603  0.77623705  0.08429099    -0.23900
H1199       H  0.87090781  0.70327816  0.47533163     0.05200
H1200       H  0.87251737  0.72032515  0.43816035     0.08500
H1201       H  0.84877281  0.70515470  0.46432441     0.08500
H1202       H  0.90479844  0.78552657  0.08749336     0.08500
H1203       H  0.88102833  0.76890575  0.11224124     0.08500
H1204       H  0.88216829  0.78661212  0.07673831     0.05200
C1205       C  0.86057654  0.73122004  0.24072007    -0.20600
C1206       C  0.88171105  0.74466119  0.24055798    -0.07100
C1207       C  0.89046446  0.75873609  0.27107743     0.13700
C1208       C  0.87792643  0.75865341  0.30098948    -0.20600
C1209       C  0.85691093  0.74465563  0.30197821    -0.07100
C1210       C  0.84809725  0.73083272  0.27098368     0.13700
C1211       C  0.82570696  0.71529124  0.26957235    -0.24000
H1212       H  0.85375294  0.72047850  0.21731342     0.15000
H1213       H  0.88482550  0.76921979  0.32462511     0.15000
C1214       C  0.91305457  0.77335742  0.27341059    -0.23900
H1215       H  0.82154839  0.70626875  0.24259004     0.05200
H1216       H  0.81646891  0.72290855  0.27079155     0.08500
H1217       H  0.82171401  0.70452543  0.29404311     0.08500
H1218       H  0.91799056  0.78370984  0.24813390     0.08500
H1219       H  0.92149777  0.76491088  0.27419833     0.08500
H1220       H  0.91720350  0.78281387  0.29981941     0.05200
C1221       C  0.89026790  0.66324575  0.16853430    -0.20600
C1222       C  0.90300460  0.67983012  0.19195041    -0.07100
C1223       C  0.90739456  0.67611344  0.22999981     0.13700
C1224       C  0.89758809  0.65619679  0.24435136    -0.20600
C1225       C  0.88365967  0.63986074  0.22180555    -0.07100
C1226       C  0.88048030  0.64337333  0.18288589     0.13700
C1227       C  0.86577113  0.62653481  0.15690239    -0.24000
H1228       H  0.88709046  0.66590326  0.13922501     0.15000
H1229       H  0.90019693  0.65343790  0.27399293     0.15000
C1230       C  0.92165156  0.69293579  0.25642263    -0.23900
H1231       H  0.86479279  0.63219082  0.12781621     0.05200
H1232       H  0.85024483  0.61904236  0.16964708     0.08500
H1233       H  0.87087940  0.61530608  0.15301077     0.08500
H1234       H  0.91555073  0.70321640  0.26231475     0.08500
H1235       H  0.93695323  0.70149777  0.24293583     0.08500
H1236       H  0.92352345  0.68707911  0.28465809     0.05200
C1237       C  0.00687371  0.78789206  0.09114158    -0.20600
C1238       C  0.02031535  0.79166860  0.12211822    -0.07100
C1239       C  0.01222829  0.78549375  0.15980456     0.13700
C1240       C  0.99101245  0.77535530  0.16513249    -0.20600
C1241       C  0.97758693  0.77082989  0.13389339    -0.07100
C1242       C  0.98565965  0.77747905  0.09643071     0.13700
C1243       C  0.97214195  0.77411116  0.06190000    -0.24000
H1244       H  0.01297756  0.79281073  0.06238956     0.15000
H1245       H  0.98483892  0.77044341  0.19385075     0.15000
C1246       C  0.02566775  0.78957561  0.19477630    -0.23900
H1247       H  0.98114328  0.78147665  0.03550859     0.05200
H1248       H  0.96208375  0.78056355  0.06748600     0.08500
H1249       H  0.96275645  0.75770471  0.05579980     0.08500
H1250       H  0.03648000  0.80605866  0.19736919     0.08500
H1251       H  0.03421325  0.78129042  0.19237607     0.08500
H1252       H  0.01667242  0.78447100  0.22188082     0.05200
C1253       C  0.10917662  0.77401060  0.08425547    -0.20600
C1254       C  0.09849725  0.78010079  0.05943402    -0.07100
C1255       C  0.09719544  0.77526595  0.01965495     0.13700
C1256       C  0.10735711  0.76534705  0.00577453    -0.20600
C1257       C  0.11877476  0.76009100  0.03041890    -0.07100
C1258       C  0.11942619  0.76423587  0.07035987     0.13700
C1259       C  0.13196674  0.75966923  0.09827779    -0.24000
H1260       H  0.11021017  0.77765232  0.11468863     0.15000
H1261       H  0.10689707  0.76220986  0.97518170     0.15000
C1262       C  0.08606376  0.78133694  0.99119857    -0.23900
H1263       H  0.13139132  0.76474932  0.12801230     0.05200
H1264       H  0.14817703  0.76759545  0.08903875     0.08500
H1265       H  0.12606100  0.74312545  0.09949888     0.08500
H1266       H  0.09290972  0.79803812  0.99100441     0.08500
H1267       H  0.06970254  0.77407161  0.99912207     0.08500
H1268       H  0.08694154  0.77657866  0.96134001     0.05200
C1269       C  0.23395553  0.35125744  0.06874485    -0.20600
C1270       C  0.23948164  0.35318334  0.02967076    -0.07100
C1271       C  0.23551419  0.33575827  0.00871184     0.13700
C1272       C  0.22537339  0.31677663  0.02691469    -0.20600
C1273       C  0.21837848  0.31459145  0.06514491    -0.07100
C1274       C  0.22315748  0.33221593  0.08665743     0.13700
C1275       C  0.21671810  0.33127614  0.12813747    -0.24000
H1276       H  0.23704405  0.36467525  0.08477760     0.15000
H1277       H  0.22199984  0.30343057  0.01039428     0.15000
C1278       C  0.24186726  0.33701656  0.96715070    -0.23900
H1279       H  0.22273384  0.34659788  0.14066965     0.05200
H1280       H  0.22258970  0.32310738  0.14586898     0.08500
H1281       H  0.19984916  0.32352683  0.13010525     0.08500
H1282       H  0.25848220  0.34770105  0.96440206     0.08500
H1283       H  0.23332496  0.34220390  0.94873966     0.08500
H1284       H  0.23870941  0.32208506  0.95605549     0.05200
C1285       C  0.22696492  0.23245089  0.12618582    -0.20600
C1286       C  0.20570248  0.22189045  0.12138027    -0.07100
C1287       C  0.19504487  0.20051349  0.12451435     0.13700
C1288       C  0.20595621  0.19042634  0.13241714    -0.20600
C1289       C  0.22726347  0.20099572  0.13624285    -0.07100
C1290       C  0.23791076  0.22235685  0.13313570     0.13700
C1291       C  0.26074009  0.23477149  0.13783833    -0.24000
H1292       H  0.23519001  0.24880349  0.12394028     0.15000
H1293       H  0.19780104  0.17407628  0.13477633     0.15000
C1294       C  0.17222076  0.18815837  0.12012468    -0.23900
H1295       H  0.26623330  0.25125789  0.13670875     0.05200
H1296       H  0.26841648  0.23137266  0.11418729     0.08500
H1297       H  0.26531458  0.23140193  0.16617541     0.08500
H1298       H  0.16773990  0.18996717  0.09047305     0.08500
H1299       H  0.16473541  0.19310295  0.14156176     0.08500
H1300       H  0.16649278  0.17177907  0.12485476     0.05200
C1301       C  0.35096495  0.22906780  0.19065800    -0.20600
C1302       C  0.35312003  0.22828351  0.23084704    -0.07100
C1303       C  0.33536590  0.21784130  0.25383185     0.13700
C1304       C  0.31619608  0.20788854  0.23581279    -0.20600
C1305       C  0.31417541  0.20746263  0.19542428    -0.07100
C1306       C  0.33184640  0.21856814  0.17256893     0.13700
C1307       C  0.33091563  0.21931239  0.12914292    -0.24000
H1308       H  0.36446060  0.23713894  0.17291153     0.15000
H1309       H  0.30271765  0.19955165  0.25348542     0.15000
C1310       C  0.33627909  0.21669067  0.29722389    -0.23900
H1311       H  0.34611404  0.22956579  0.11637101     0.05200
H1312       H  0.32049621  0.22494030  0.12033044     0.08500
H1313       H  0.32552663  0.20403406  0.11697940     0.08500
H1314       H  0.34464516  0.23217117  0.30947271     0.08500
H1315       H  0.34393216  0.20804677  0.30561967     0.08500
H1316       H  0.32083333  0.20884868  0.31032030     0.05200
C1317       C  0.25457267  0.13151521  0.48513488    -0.20600
C1318       C  0.24351713  0.11033246  0.48887114    -0.07100
C1319       C  0.23190986  0.10176318  0.02282017     0.13700
C1320       C  0.23300785  0.11456714  0.05293176    -0.20600
C1321       C  0.24579732  0.13561025  0.05054852    -0.07100
C1322       C  0.25610349  0.14425460  0.01558218     0.13700
C1323       C  0.26875591  0.16683577  0.01001000    -0.24000
H1324       H  0.26301038  0.13827999  0.45882852     0.15000
H1325       H  0.22475400  0.10798206  0.07950387     0.15000
C1326       C  0.21875239  0.07923930  0.02822474    -0.23900
H1327       H  0.27430650  0.17084693  0.47983648     0.05200
H1328       H  0.28230929  0.17317965  0.02917310     0.08500
H1329       H  0.25942771  0.17400450  0.01644005     0.08500
H1330       H  0.22838247  0.07203678  0.02893932     0.08500
H1331       H  0.20749790  0.07280042  0.00433849     0.08500
H1332       H  0.21014578  0.07541277  0.05580003     0.05200
C1333       C  0.26395043  0.10935225  0.27450096    -0.20600
C1334       C  0.24816859  0.10306690  0.30159411    -0.07100
C1335       C  0.23239143  0.10762343  0.29473368     0.13700
C1336       C  0.23352998  0.11925060  0.26224023    -0.35000
C1337       C  0.24975783  0.12619270  0.23597489    -0.07100
C1338       C  0.26494646  0.12070828  0.24179261     0.13700
C1339       C  0.28272766  0.12724866  0.21467675    -0.24000
H1340       H  0.27591108  0.10569447  0.27930434     0.15000
H1341       H  0.22177136  0.12321198  0.25763351     0.15000
C1342       C  0.21451647  0.10079220  0.32167251    -0.23900
H1343       H  0.29323132  0.12187538  0.22440106     0.05200
H1344       H  0.29168066  0.14401209  0.21307536     0.08500
H1345       H  0.27710790  0.12085638  0.18553538     0.08500
H1346       H  0.21993181  0.10734859  0.35078564     0.08500
H1347       H  0.20597631  0.08402550  0.32349999     0.08500
H1348       H  0.20370555  0.10569223  0.31150198     0.05200
C1349       C  0.34968672  0.11814004  0.43830545    -0.20600
C1350       C  0.35211812  0.11932525  0.47862322    -0.07100
C1351       C  0.33465686  0.10852126  0.50214575     0.13700
C1352       C  0.31527313  0.09812060  0.48485581    -0.20600
C1353       C  0.31270186  0.09815938  0.44463238    -0.07100
C1354       C  0.33031298  0.10771323  0.42097401     0.13700
C1355       C  0.32904321  0.10709651  0.37749405    -0.24000
H1356       H  0.36302446  0.12599663  0.42009903     0.15000
H1357       H  0.30195124  0.09047239  0.50316545     0.15000
C1358       C  0.33619216  0.10765973  0.54544103    -0.23900
H1359       H  0.34437960  0.11423884  0.36398070     0.05200
H1360       H  0.32144046  0.11546485  0.36705990     0.08500
H1361       H  0.32046773  0.09114789  0.36761960     0.08500
H1362       H  0.34185648  0.12290334  0.55796934     0.08500
H1363       H  0.34666731  0.10192608  0.05316148     0.08500
H1364       H  0.32115995  0.09740662  0.55881217     0.05200
C1365       C  0.21778232  0.88831390  0.33029635    -0.20600
C1366       C  0.20799015  0.89504635  0.30463186    -0.07100
C1367       C  0.20961333  0.89287825  0.26443631     0.13700
C1368       C  0.21977430  0.88286004  0.25132427    -0.20600
C1369       C  0.22853665  0.87505009  0.27707706    -0.07100
C1370       C  0.22816284  0.87851085  0.31717679     0.13700
C1371       C  0.23791656  0.87135719  0.34664343    -0.24000
H1372       H  0.21683798  0.89025281  0.36105854     0.15000
H1373       H  0.22031377  0.88055378  0.22059849     0.15000
C1374       C  0.19994072  0.90016853  0.23507584    -0.23900
H1375       H  0.23601292  0.87539817  0.37650900     0.05200
H1376       H  0.25452630  0.87855607  0.34096975     0.08500
H1377       H  0.23082008  0.85464936  0.34542546     0.08500
H1378       H  0.20664215  0.91679535  0.23750849     0.08500
H1379       H  0.18321716  0.89253205  0.23979907     0.08500
H1380       H  0.20252014  0.89687289  0.20507465     0.05200
C1381       C  0.11520969  0.85788090  0.26798396    -0.20600
C1382       C  0.12555206  0.87908643  0.26485724    -0.07100
C1383       C  0.12399755  0.88800291  0.22993987     0.13700
C1384       C  0.11348929  0.87551875  0.19850771    -0.20600
C1385       C  0.10471774  0.85442948  0.20075648    -0.07100
C1386       C  0.10490841  0.84544399  0.23645375     0.13700
C1387       C  0.09429496  0.82280227  0.24173900    -0.24000
H1388       H  0.11585185  0.85091819  0.29491236     0.15000
H1389       H  0.11297740  0.88237341  0.17133588     0.15000
C1390       C  0.13397199  0.91058955  0.22474117    -0.23900
H1391       H  0.09468023  0.81852792  0.27229664     0.05200
H1392       H  0.10192271  0.81633973  0.22427303     0.08500
H1393       H  0.07805820  0.81595554  0.23294655     0.08500
H1394       H  0.15075208  0.91762456  0.22789940     0.08500
H1395       H  0.12794074  0.91693380  0.24643535     0.08500
H1396       H  0.13092472  0.91473038  0.19568633     0.05200
C1397       C  0.14734493  0.88359678  0.48089831    -0.20600
C1398       C  0.13686556  0.88748969  0.45170256    -0.07100
C1399       C  0.11588422  0.88083156  0.45662090     0.13700
C1400       C  0.10574403  0.86928685  0.48938123    -0.20600
C1401       C  0.11599167  0.86424702  0.01734114    -0.07100
C1402       C  0.13733873  0.87228718  0.01373123     0.13700
C1403       C  0.14990506  0.86902856  0.04384886    -0.24000
H1404       H  0.16351685  0.88910766  0.47762184     0.15000
H1405       H  0.08952553  0.86354796  0.49237446     0.15000
C1406       C  0.10382149  0.88504202  0.42697699    -0.23900
H1407       H  0.16644260  0.87757050  0.03705301     0.05200
H1408       H  0.14542194  0.85279721  0.04537939     0.08500
H1409       H  0.14781711  0.87431764  0.07239008     0.08500
H1410       H  0.10423335  0.87836134  0.39881314     0.08500
H1411       H  0.11027984  0.90161483  0.42374623     0.08500
H1412       H  0.08758732  0.87844390  0.43546308     0.05200
C1413       C  0.18920996  0.98418188  0.37158650    -0.20600
C1414       C  0.20009243  0.97375467  0.36929960    -0.07100
C1415       C  0.22150728  0.98459743  0.37425137     0.13700
C1416       C  0.23134762  0.00541700  0.38195056    -0.20600
C1417       C  0.22048511  0.01586905  0.38497978    -0.07100
C1418       C  0.19903228  0.00502147  0.37953219     0.13700
C1419       C  0.18629498  0.01515724  0.38140455    -0.24000
H1420       H  0.17281543  0.97588364  0.36762023     0.15000
H1421       H  0.24775202  0.01359385  0.38568983     0.15000
C1422       C  0.23426365  0.97456205  0.37017693    -0.23900
H1423       H  0.16994797  0.00439685  0.37545043     0.05200
H1424       H  0.19168360  0.02743640  0.35952273     0.08500
H1425       H  0.18729940  0.02143629  0.41069027     0.08500
H1426       H  0.23151109  0.96719314  0.34149342     0.08500
H1427       H  0.23041338  0.96313359  0.39333966     0.08500
H1428       H  0.25081864  0.98561204  0.37253858     0.05200
C1429       C  0.89780450  0.20781823  0.47735603    -0.20600
C1430       C  0.89845899  0.20653553  0.43693254    -0.07100
C1431       C  0.88936559  0.21529590  0.41385875     0.13700
C1432       C  0.87947497  0.22447115  0.43177932    -0.20600
C1433       C  0.87778174  0.22473422  0.47211012    -0.07100
C1434       C  0.88742098  0.21656680  0.49528603     0.13700
C1435       C  0.88693387  0.21693449  0.03873787    -0.24000
H1436       H  0.90477872  0.20120526  0.49519081     0.15000
H1437       H  0.87221165  0.23075240  0.41384760     0.15000
C1438       C  0.88959329  0.21488035  0.37032765    -0.23900
H1439       H  0.89611253  0.21075619  0.05191885     0.05200
H1440       H  0.87103267  0.20748593  0.04905645     0.08500
H1441       H  0.89312042  0.23254798  0.54912410     0.08500
H1442       H  0.88065492  0.19906203  0.35993383     0.08500
H1443       H  0.90554163  0.22190941  0.35982217     0.08500
H1444       H  0.88264132  0.22337917  0.35734659     0.05200
C1445       C  0.11228105  0.32933780  0.33200885    -0.20600
C1446       C  0.10417535  0.31257441  0.30723228    -0.07100
C1447       C  0.10502305  0.31586767  0.26680456     0.13700
C1448       C  0.11546420  0.33572592  0.25242669    -0.20600
C1449       C  0.12451486  0.35247527  0.27714309    -0.07100
C1450       C  0.12208384  0.34923102  0.31757507     0.13700
C1451       C  0.13034142  0.36650901  0.34585264    -0.24000
H1452       H  0.11130128  0.32686225  0.36295823     0.15000
H1453       H  0.11695114  0.33818332  0.22147355     0.15000
C1454       C  0.09570093  0.29866442  0.23835768    -0.23900
H1455       H  0.12707936  0.36108151  0.37620744     0.05200
H1456       H  0.12310598  0.37589272  0.34060618     0.08500
H1457       H  0.14713297  0.37593174  0.34272357     0.08500
H1458       H  0.07901219  0.28952109  0.24328867     0.08500
H1459       H  0.10277697  0.28900565  0.24155763     0.08500
H1460       H  0.09800882  0.30415812  0.20803498     0.05200
C1461       C  0.11256232  0.25653681  0.48352539    -0.20600
C1462       C  0.11300837  0.24700702  0.44939868    -0.07100
C1463       C  0.12491754  0.23741911  0.44796098     0.13700
C1464       C  0.13648396  0.23817621  0.48043826    -0.20600
C1465       C  0.13668867  0.24842382  0.01424966    -0.07100
C1466       C  0.12421798  0.25748199  0.01584865     0.13700
C1467       C  0.12332137  0.26872221  0.05083050    -0.24000
H1468       H  0.10337660  0.26380046  0.48457575     0.15000
H1469       H  0.14590828  0.23119134  0.47893362     0.15000
C1470       C  0.12638854  0.22724515  0.41184112    -0.23900
H1471       H  0.11255207  0.27449954  0.04673764     0.05200
H1472       H  0.13858402  0.28198967  0.05654044     0.08500
H1473       H  0.11804343  0.25847670  0.07627856     0.08500
H1474       H  0.13213128  0.23825587  0.38756068     0.08500
H1475       H  0.11117830  0.21432402  0.40441249     0.08500
H1476       H  0.13699357  0.22124716  0.41554395     0.05200
C1477       C  0.12595881  0.23555389  0.20435728    -0.20600
C1478       C  0.14693652  0.24958223  0.20432074    -0.07100
C1479       C  0.15561650  0.26249456  0.23655017     0.13700
C1480       C  0.14289086  0.26165571  0.26668140    -0.20600
C1481       C  0.12168016  0.24859192  0.26544663    -0.07100
C1482       C  0.11316873  0.23499708  0.23412153     0.13700
C1483       C  0.09066290  0.22010280  0.23112038    -0.24000
H1484       H  0.11927598  0.22548499  0.17994389     0.15000
H1485       H  0.14958560  0.27188168  0.29087767     0.15000
C1486       C  0.17815858  0.27732618  0.23959621    -0.23900
H1487       H  0.08695643  0.21034319  0.20521999     0.05200
H1488       H  0.08201808  0.22830107  0.22870070     0.08500
H1489       H  0.08554135  0.21006908  0.25687928     0.08500
H1490       H  0.18285355  0.28913329  0.21691113     0.08500
H1491       H  0.18688675  0.26924502  0.23660788     0.08500
H1492       H  0.18224911  0.28519445  0.26788421     0.05200
C1493       C  0.99253594  0.19085017  0.37253879    -0.20600
C1494       C  0.98214529  0.20166688  0.37742670    -0.07100
C1495       C  0.99340758  0.22309971  0.37656998     0.13700
C1496       C  0.01456785  0.23298440  0.37092618    -0.20600
C1497       C  0.02492986  0.22219712  0.36574757    -0.07100
C1498       C  0.01372941  0.20078723  0.36655191     0.13700
C1499       C  0.02396593  0.18826322  0.36227834    -0.24000
H1500       H  0.98399185  0.17446585  0.37317050     0.15000
H1501       H  0.02310609  0.24937051  0.37033109     0.15000
C1502       C  0.98349639  0.23583250  0.38252147    -0.23900
H1503       H  0.01297664  0.17184216  0.36545636     0.05200
H1504       H  0.03588122  0.19254742  0.38482982     0.08500
H1505       H  0.03094554  0.19065388  0.33322132     0.08500
H1506       H  0.97534087  0.23193660  0.41058569     0.08500
H1507       H  0.97267682  0.23329831  0.35862650     0.08500
H1508       H  0.99485532  0.25224572  0.38292800     0.05200
C1509       C  0.88240751  0.11187434  0.24561309    -0.20600
C1510       C  0.87205997  0.11945901  0.22356338    -0.07100
C1511       C  0.87465816  0.13870789  0.23290635     0.13700
C1512       C  0.88662394  0.14917147  0.26490859    -0.20600
C1513       C  0.89581674  0.14094552  0.28855099    -0.07100
C1514       C  0.89414938  0.12224035  0.27800393     0.13700
C1515       C  0.90423675  0.11275221  0.30085404    -0.24000
H1516       H  0.88076365  0.09734131  0.23822510     0.15000
H1517       H  0.88807142  0.16361233  0.27241781     0.15000
C1518       C  0.86431086  0.14815689  0.21065948    -0.23900
H1519       H  0.90181541  0.09851306  0.28745788     0.05200
H1520       H  0.89775651  0.10895825  0.33040797     0.08500
H1521       H  0.92092790  0.12332642  0.30230885     0.08500
H1522       H  0.84750359  0.13831523  0.21236712     0.08500
H1523       H  0.86931522  0.15042980  0.18006966     0.08500
H1524       H  0.86810685  0.16317152  0.22238605     0.05200
C1525       C  0.89413417  0.12366175  0.00700093    -0.20600
C1526       C  0.88442754  0.12761664  0.47638123    -0.07100
C1527       C  0.86300834  0.11961805  0.47814791     0.13700
C1528       C  0.85230528  0.10904210  0.01127344    -0.20600
C1529       C  0.86221930  0.10588626  0.04258723    -0.07100
C1530       C  0.88337464  0.11285125  0.03995190     0.13700
C1531       C  0.89498523  0.10974422  0.07218833    -0.24000
H1532       H  0.91043180  0.12951175  0.00562828     0.15000
H1533       H  0.83605759  0.10346998  0.01299821     0.15000
C1534       C  0.85117014  0.12264229  0.44617639    -0.23900
H1535       H  0.91146344  0.11662817  0.06542314     0.05200
H1536       H  0.88891126  0.09332507  0.07699741     0.08500
H1537       H  0.89361358  0.11684805  0.09907588     0.08500
H1538       H  0.85281760  0.11592700  0.41900403     0.08500
H1539       H  0.85674374  0.13901956  0.44199858     0.08500
H1540       H  0.83462710  0.11523940  0.45276175     0.05200
C1541       C  0.78310380  0.10945060  0.16015695    -0.20600
C1542       C  0.78577006  0.09560578  0.18281666    -0.07100
C1543       C  0.77702268  0.09075557  0.22027750     0.13700
C1544       C  0.76701889  0.10077147  0.23456966    -0.20600
C1545       C  0.76532907  0.11533402  0.21245278    -0.07100
C1546       C  0.77321659  0.11947772  0.17444953     0.13700
C1547       C  0.77253483  0.13542702  0.14953865    -0.24000
H1548       H  0.78969450  0.11326925  0.13149350     0.15000
H1549       H  0.76088294  0.09756605  0.26362533     0.15000
C1550       C  0.77829095  0.07531466  0.24567240    -0.23900
H1551       H  0.78034394  0.13733663  0.12145508     0.05200
H1552       H  0.78026160  0.15025204  0.16452547     0.08500
H1553       H  0.75647671  0.13107893  0.14321583     0.08500
H1554       H  0.76958431  0.07268494  0.27288884     0.08500
H1555       H  0.77181273  0.06064977  0.23026929     0.08500
H1556       H  0.79438097  0.08062589  0.25372776     0.05200
C1557       C  0.76794104  0.88812602  0.49445979    -0.20600
C1558       C  0.75465486  0.87827169  0.02539396    -0.07100
C1559       C  0.74220715  0.85691148  0.02439635     0.13700
C1560       C  0.74240722  0.84635351  0.49152237    -0.20600
C1561       C  0.75418453  0.85644275  0.45903199    -0.07100
C1562       C  0.76762066  0.87762699  0.46099793     0.13700
C1563       C  0.78082068  0.88961137  0.42742693    -0.24000
H1564       H  0.77769038  0.90440499  0.49528799     0.15000
H1565       H  0.73248533  0.83010024  0.49052599     0.15000
C1566       C  0.72821358  0.84496528  0.05714791    -0.23900
H1567       H  0.79005448  0.90598897  0.43411971     0.05200
H1568       H  0.77111526  0.88803904  0.40207218     0.08500
H1569       H  0.79154985  0.88418560  0.42007640     0.08500
H1570       H  0.71588720  0.84872747  0.06018737     0.08500
H1571       H  0.73702467  0.84827108  0.08440541     0.08500
H1572       H  0.72073822  0.82840916  0.05213013     0.05200
C1573       C  0.74382675  0.88814877  0.23699529    -0.20600
C1574       C  0.75243426  0.88659584  0.20242009    -0.07100
C1575       C  0.76063631  0.87354228  0.20039994     0.13700
C1576       C  0.75978548  0.86218376  0.23310169    -0.20600
C1577       C  0.75095879  0.86354420  0.26781811    -0.07100
C1578       C  0.74306774  0.87697297  0.26978977     0.13700
C1579       C  0.73343658  0.87954292  0.30581665    -0.24000
H1580       H  0.73746461  0.89811142  0.23821781     0.15000
H1581       H  0.76572263  0.85189012  0.23123202     0.15000
C1582       C  0.76937434  0.87075853  0.16340557    -0.23900
H1583       H  0.72835235  0.89080950  0.30176416     0.05200
H1584       H  0.74465637  0.88496773  0.32985374     0.08500
H1585       H  0.71978075  0.86497289  0.31372667     0.08500
H1586       H  0.78300038  0.88520829  0.15490625     0.08500
H1587       H  0.75775994  0.86578104  0.14013988     0.08500
H1588       H  0.77411868  0.85918514  0.16646115     0.05200
C1589       C  0.78473212  0.98480455  0.15505966    -0.20600
C1590       C  0.78033494  0.97690465  0.11741560    -0.07100
C1591       C  0.78686747  0.99055013  0.08576536     0.13700
C1592       C  0.79729775  0.01150517  0.09269881    -0.20600
C1593       C  0.80157996  0.01937132  0.13032854    -0.07100
C1594       C  0.79535937  0.00576611  0.16195083     0.13700
C1595       C  0.79923006  0.01311117  0.20310020    -0.24000
H1596       H  0.77979645  0.97447924  0.17941065     0.15000
H1597       H  0.80207492  0.02187113  0.06841089     0.15000
C1598       C  0.78238348  0.98330294  0.04458183    -0.23900
H1599       H  0.79254293  0.00037850  0.22407836     0.05200
H1600       H  0.79229142  0.02272790  0.20846306     0.08500
H1601       H  0.81588120  0.02190908  0.20867920     0.08500
H1602       H  0.76567010  0.97372100  0.04036678     0.08500
H1603       H  0.79005601  0.97453298  0.03762133     0.08500
H1604       H  0.78798209  0.99608135  0.02375879     0.05200
C1605       C  0.68591475  0.90041772  0.02555896    -0.20600
C1606       C  0.68863148  0.90000532  0.06567619    -0.07100
C1607       C  0.67123065  0.89205803  0.08988830     0.13700
C1608       C  0.65175516  0.88363201  0.07316664    -0.20600
C1609       C  0.64900036  0.88232764  0.03294119    -0.07100
C1610       C  0.66640377  0.89159081  0.00884301     0.13700
C1611       C  0.66469256  0.89214406  0.46551735    -0.24000
H1612       H  0.69913241  0.90685715  0.00684111     0.15000
H1613       H  0.63849636  0.87686517  0.09178932     0.15000
C1614       C  0.67276694  0.89171701  0.13328002    -0.23900
H1615       H  0.67983888  0.90134150  0.45171161     0.05200
H1616       H  0.65517024  0.89894884  0.45759468     0.08500
H1617       H  0.65788808  0.87665045  0.45354505     0.08500
H1618       H  0.68280435  0.90728834  0.14416462     0.08500
H1619       H  0.67888635  0.88175209  0.14207773     0.08500
H1620       H  0.65766651  0.88576529  0.14734427     0.05200
In1621     In  0.74630142  0.91407499  0.60469242     1.36900
C1622       C  0.75260660  0.89094660  0.55558097     0.77300
O1623       O  0.76469827  0.90537998  0.64292557    -0.61100
O1624       O  0.73543920  0.89913431  0.66197660    -0.52000
C1625       C  0.76843937  0.95450799  0.61260596     0.70000
O1626       O  0.76813810  0.94543835  0.58211247    -0.46900
C1627       C  0.70950872  0.90646093  0.58042475     0.74700
O1628       O  0.76519741  0.90958807  0.55969920    -0.58800
O1629       O  0.71334625  0.90425958  0.61490260    -0.48900
O1630       O  0.73740406  0.88435505  0.57757272    -0.55200
C1631       C  0.75096918  0.89746808  0.66829245     0.84900
O1632       O  0.75762224  0.94279355  0.63917188    -0.57100
O1633       O  0.72491798  0.91366882  0.55878808    -0.60400
In1634     In  0.82918449  0.08192373  0.64303624     1.36900
C1635       C  0.85758941  0.10625727  0.69328640     0.77300
O1636       O  0.85540472  0.08836164  0.60407496    -0.61100
O1637       O  0.83393932  0.09670754  0.58521055    -0.52000
C1638       C  0.81163076  0.04171159  0.63521140     0.70000
O1639       O  0.82237072  0.05108679  0.66402488    -0.46900
C1640       C  0.79956800  0.08855609  0.66756879     0.74700
O1641       O  0.85213635  0.08774032  0.69006533    -0.58800
O1642       O  0.80681470  0.09274543  0.63389231    -0.48900
O1643       O  0.84909821  0.11223500  0.66954313    -0.55200
C1644       C  0.85023434  0.09660082  0.57814833     0.84900
O1645       O  0.80999952  0.05299296  0.61048330    -0.57100
O1646       O  0.80635681  0.07937486  0.68758950    -0.60400
In1647     In  0.08761644  0.25577470  0.85062733     1.36900
C1648       C  0.10916114  0.25038860  0.79641868     0.77300
O1649       O  0.08492203  0.27599002  0.80691258    -0.61100
O1650       O  0.10294437  0.28956736  0.85655902    -0.52000
C1651       C  0.04736452  0.23393273  0.86049734     0.70000
O1652       O  0.05745107  0.22724257  0.84341594    -0.46900
C1653       C  0.10260380  0.24925577  0.91503875     0.74700
O1654       O  0.08992296  0.24112427  0.79643676    -0.58800
O1655       O  0.09995361  0.26422124  0.91061285    -0.48900
O1656       O  0.11715065  0.26204360  0.82476565    -0.55200
C1657       C  0.09685087  0.29216217  0.82418853     0.84900
O1658       O  0.05798404  0.25180954  0.87249501    -0.57100
O1659       O  0.09634471  0.23699411  0.88731602    -0.60400
In1660     In  0.91923130  0.16973919  0.89288115     1.36900
C1661       C  0.89721796  0.14152569  0.94506156     0.77300
O1662       O  0.91751956  0.18891113  0.94019968    -0.61100
O1663       O  0.90455292  0.18867628  0.88585037    -0.52000
C1664       C  0.95970271  0.19017163  0.88346102     0.70000
O1665       O  0.95027842  0.17214906  0.89551009    -0.46900
C1666       C  0.90544516  0.15169565  0.82508996     0.74700
O1667       O  0.91637695  0.15246103  0.94770629    -0.58800
O1668       O  0.90605506  0.16795652  0.83435765    -0.48900
O1669       O  0.88989497  0.14423055  0.91443400    -0.55200
C1670       C  0.90737807  0.19473406  0.92030433     0.84900
O1671       O  0.94834386  0.19748076  0.87662765    -0.57100
O1672       O  0.91277895  0.14512043  0.85028075    -0.60400
In1673     In  0.16791008  0.91177366  0.84967025     1.36900
C1674       C  0.13952047  0.89102393  0.79678425     0.77300
O1675       O  0.18931261  0.91329636  0.80309977    -0.61100
O1676       O  0.18709746  0.89712409  0.85438027    -0.52000
C1677       C  0.18866265  0.95167696  0.86180477     0.70000
O1678       O  0.17245678  0.94320996  0.84220249    -0.46900
C1679       C  0.14814612  0.89706648  0.91569679     0.74700
O1680       O  0.14837687  0.91005285  0.79913540    -0.58800
O1681       O  0.16416753  0.89685913  0.90681192    -0.48900
O1682       O  0.14447266  0.88277190  0.82298833    -0.55200
C1683       C  0.19467567  0.90228012  0.82109159     0.84900
O1684       O  0.19408772  0.93968687  0.87501566    -0.57100
O1685       O  0.14257514  0.90554430  0.89106080    -0.60400
In1686     In  0.25390324  0.07811865  0.90426733     1.36900
C1687       C  0.24596429  0.09820547  0.95802057     0.77300
O1688       O  0.27591126  0.07953166  0.94981454    -0.61100
O1689       O  0.28763150  0.09251214  0.89515885    -0.52000
C1690       C  0.23225642  0.03803364  0.89267365     0.70000
O1691       O  0.22429294  0.04845165  0.90212569    -0.46900
C1692       C  0.24964673  0.09313172  0.83751648     0.74700
O1693       O  0.23918270  0.07939122  0.95995652    -0.58800
O1694       O  0.26563476  0.09282996  0.84674153    -0.48900
O1695       O  0.25616783  0.10633013  0.92799267    -0.55200
C1696       C  0.29156252  0.08951653  0.92915260     0.84900
O1697       O  0.25138901  0.04815529  0.89011995    -0.57100
O1698       O  0.23555578  0.08490914  0.86200219    -0.60400
In1699     In  0.25680560  0.16795482  0.65191688     1.36900
C1700       C  0.25114515  0.14021073  0.70465612     0.77300
O1701       O  0.23602350  0.14282758  0.61195357    -0.61100
O1702       O  0.26609433  0.16324203  0.59341832    -0.52000
C1703       C  0.23782691  0.18924682  0.64261660     0.70000
O1704       O  0.22945130  0.17210425  0.65872137    -0.46900
C1705       C  0.29358226  0.19431860  0.67874256     0.74700
O1706       O  0.24187379  0.15016362  0.70585437    -0.58800
O1707       O  0.29050168  0.18820696  0.64425981    -0.48900
O1708       O  0.26225578  0.14381194  0.67535245    -0.55200
C1709       C  0.24925889  0.14775643  0.58585482     0.84900
O1710       O  0.25577834  0.19529906  0.63161761    -0.57100
O1711       O  0.27760664  0.18746825  0.69882817    -0.60400
In1712     In  0.17774854  0.25628118  0.60206417     1.36900
C1713       C  0.15083319  0.25032615  0.54610863     0.77300
O1714       O  0.15169306  0.23824236  0.64241578    -0.61100
O1715       O  0.17584014  0.26633507  0.66153950    -0.52000
C1716       C  0.19544637  0.23390452  0.61405868     0.70000
O1717       O  0.17813365  0.22691935  0.59859709    -0.46900
C1718       C  0.20489767  0.29374257  0.57998783     0.74700
O1719       O  0.16288430  0.24339576  0.54423760    -0.58800
O1720       O  0.19363519  0.28989549  0.60910912    -0.48900
O1721       O  0.15232095  0.25952654  0.57701156    -0.55200
C1722       C  0.15867644  0.25128200  0.66892051     0.84900
O1723       O  0.20365432  0.25235006  0.62272780    -0.57100
O1724       O  0.20285575  0.27820215  0.56307367    -0.60400
In1725     In  0.08244474  0.82132701  0.60046551     1.36900
C1726       C  0.10385391  0.84960151  0.54819515     0.77300
O1727       O  0.08962428  0.84825740  0.63734312    -0.61100
O1728       O  0.09580814  0.82588245  0.65945240    -0.52000
C1729       C  0.04251941  0.80212429  0.61397242     0.70000
O1730       O  0.05021105  0.81198798  0.58330007    -0.46900
C1731       C  0.09126204  0.79351306  0.57536728     0.74700
O1732       O  0.08502495  0.84299819  0.55318852    -0.58800
O1733       O  0.09867603  0.80359324  0.60577356    -0.48900
O1734       O  0.11132105  0.84200560  0.57067641    -0.55200
C1735       C  0.09629552  0.84243348  0.66511946     0.84900
O1736       O  0.05532314  0.80183228  0.63683857    -0.57100
O1737       O  0.07816208  0.79670066  0.55922537    -0.60400
In1738     In  0.91541098  0.73676041  0.65493071     1.36900
C1739       C  0.89397191  0.74248181  0.70943614     0.77300
O1740       O  0.90618898  0.75561024  0.61909572    -0.61100
O1741       O  0.90059939  0.72745292  0.59713352    -0.52000
C1742       C  0.95536466  0.75888629  0.64145772     0.70000
O1743       O  0.94753947  0.75903744  0.67345605    -0.46900
C1744       C  0.90909735  0.70045309  0.67717835     0.74700
O1745       O  0.91221404  0.75544563  0.70176723    -0.58800
O1746       O  0.90129611  0.70322994  0.64721176    -0.48900
O1747       O  0.88681685  0.72696625  0.68850281    -0.55200
C1748       C  0.89883728  0.74291620  0.59206267     0.84900
O1749       O  0.94271955  0.74732481  0.61681552    -0.57100
O1750       O  0.92129800  0.71657280  0.69427395    -0.60400
In1751     In  0.82624719  0.73998904  0.90390771     1.36900
C1752       C  0.85286108  0.74549760  0.95961140     0.77300
O1753       O  0.80396036  0.71884331  0.94747619    -0.61100
O1754       O  0.80994759  0.70625223  0.89833217    -0.52000
C1755       C  0.80644952  0.76045627  0.89314901     0.70000
O1756       O  0.82472225  0.76885851  0.90463270    -0.46900
C1757       C  0.84527797  0.74395005  0.83714341     0.74700
O1758       O  0.84205136  0.75388457  0.96079809    -0.58800
O1759       O  0.82714946  0.73034673  0.84342736    -0.48900
O1760       O  0.85099054  0.73604770  0.92886560    -0.55200
C1761       C  0.80110487  0.70304713  0.93054135     0.84900
O1762       O  0.79869203  0.74180834  0.88713514    -0.57100
O1763       O  0.85318884  0.75642054  0.86445316    -0.60400
In1764     In  0.74248841  0.82399196  0.85733164     1.36900
C1765       C  0.74914627  0.84999429  0.80036588     0.77300
O1766       O  0.71944087  0.80065460  0.81742453    -0.61100
O1767       O  0.70847937  0.80940135  0.86534414    -0.52000
C1768       C  0.76374624  0.80514868  0.86839333     0.70000
O1769       O  0.77139498  0.82255068  0.85369808    -0.46900
C1770       C  0.75059569  0.84457598  0.92302639     0.74700
O1771       O  0.75421636  0.83655779  0.79787370    -0.58800
O1772       O  0.73520885  0.82721619  0.91861702    -0.48900
O1773       O  0.74174171  0.85042923  0.83254712    -0.55200
C1774       C  0.70410571  0.79902577  0.83485889     0.84900
O1775       O  0.74514330  0.79738580  0.87681201    -0.57100
O1776       O  0.76206706  0.85102476  0.89393630    -0.60400
In1777     In  0.74783082  0.15385428  0.76029673     1.36900
C1778       C  0.76863186  0.18165226  0.70678692     0.77300
O1779       O  0.75562746  0.17983780  0.79996906    -0.61100
O1780       O  0.76399328  0.15822918  0.81678059    -0.52000
C1781       C  0.70774972  0.13526932  0.77387650     0.70000
O1782       O  0.71745521  0.15253863  0.75865304    -0.46900
C1783       C  0.75730276  0.12749287  0.73065983     0.74700
O1784       O  0.74942256  0.17080060  0.70558826    -0.58800
O1785       O  0.76060512  0.13283215  0.76560515    -0.48900
O1786       O  0.77663247  0.17847252  0.73591010    -0.55200
C1787       C  0.76449032  0.17463090  0.82447035     0.84900
O1788       O  0.71869071  0.12760429  0.78206908    -0.57100
O1789       O  0.74769343  0.13436972  0.71213427    -0.60400
In1790     In  0.58043503  0.07064085  0.80881070     1.36900
C1791       C  0.55768756  0.07504574  0.86153081     0.77300
O1792       O  0.57406030  0.09005131  0.76891405    -0.61100
O1793       O  0.56557279  0.06032488  0.75113350    -0.52000
C1794       C  0.62048578  0.09064187  0.79860359     0.70000
O1795       O  0.61110179  0.09852029  0.81429004    -0.46900
C1796       C  0.57207597  0.03548393  0.83942391     0.74700
O1797       O  0.57687575  0.08620039  0.86092610    -0.58800
O1798       O  0.56790295  0.03720256  0.80471828    -0.48900
O1799       O  0.55050835  0.06290083  0.83374251    -0.55200
C1800       C  0.56561433  0.07654890  0.74360605     0.84900
O1801       O  0.60929349  0.07264761  0.78782599    -0.57100
O1802       O  0.58208281  0.05204605  0.85698258    -0.60400
In1803     In  0.49046674  0.07007733  0.55906650     1.36900
C1804       C  0.51858621  0.07619734  0.61180873     0.77300
O1805       O  0.46967938  0.05007035  0.60613714    -0.61100
O1806       O  0.46966726  0.03663186  0.55293033    -0.52000
C1807       C  0.47259922  0.09239696  0.54762791     0.70000
O1808       O  0.48961227  0.09907742  0.56406346    -0.46900
C1809       C  0.51066849  0.07457631  0.49359353     0.74700
O1810       O  0.50847833  0.08531146  0.61257683    -0.58800
O1811       O  0.49364927  0.05923269  0.50095664    -0.48900
O1812       O  0.51456265  0.06460421  0.58336069    -0.55200
C1813       C  0.46302981  0.03394357  0.58702016     0.84900
O1814       O  0.46468749  0.07420267  0.53733766    -0.57100
O1815       O  0.51682789  0.08796293  0.51930492    -0.60400
In1816     In  0.41035935  0.15847932  0.52077507     1.36900
C1817       C  0.41732268  0.18640230  0.96736566     0.77300
O1818       O  0.38884993  0.13810985  0.97492468    -0.61100
O1819       O  0.37631609  0.13979916  0.52820380    -0.52000
C1820       C  0.43031577  0.13789527  0.52888123     0.70000
O1821       O  0.43822485  0.15506441  0.51302893    -0.46900
C1822       C  0.41704231  0.17921621  0.58634522     0.74700
O1823       O  0.42534120  0.17530059  0.96589071    -0.58800
O1824       O  0.40166179  0.16198152  0.58114791    -0.48900
O1825       O  0.40647652  0.18345332  0.99681148    -0.55200
C1826       C  0.37293466  0.13251199  0.99462434     0.84900
O1827       O  0.41259441  0.13174015  0.54138721    -0.57100
O1828       O  0.42954311  0.18522145  0.55878338    -0.60400
In1829     In  0.41159872  0.24796642  0.77081352     1.36900
C1830       C  0.41704237  0.22597004  0.71765068     0.77300
O1831       O  0.43108683  0.24027766  0.80827385    -0.61100
O1832       O  0.40357365  0.23650979  0.83139315    -0.52000
C1833       C  0.43227590  0.28826504  0.77860977     0.70000
O1834       O  0.43944520  0.27863712  0.76143682    -0.46900
C1835       C  0.37407890  0.23687020  0.74668044     0.74700
O1836       O  0.42657729  0.24509552  0.71708352    -0.58800
O1837       O  0.37788114  0.23276234  0.77988089    -0.48900
O1838       O  0.40528457  0.21841754  0.74608590    -0.55200
C1839       C  0.41885724  0.23427675  0.83625209     0.84900
O1840       O  0.41452589  0.27714530  0.79129980    -0.57100
O1841       O  0.38975382  0.24787095  0.72681433    -0.60400
In1842     In  0.49845893  0.41523488  0.81163691     1.36900
C1843       C  0.52688389  0.43693819  0.86386708     0.77300
O1844       O  0.52457080  0.42554494  0.77095914    -0.61100
O1845       O  0.49882730  0.42725023  0.75200420    -0.52000
C1846       C  0.47941584  0.37525896  0.80059716     0.70000
O1847       O  0.49815995  0.38536577  0.80855315    -0.46900
C1848       C  0.47285434  0.42482485  0.84447506     0.74700
O1849       O  0.51666085  0.41780866  0.86526146    -0.58800
O1850       O  0.47768614  0.42846957  0.80924285    -0.48900
O1851       O  0.52318475  0.44442820  0.83459245    -0.55200
C1852       C  0.51662997  0.43078965  0.74455943     0.84900
O1853       O  0.47071411  0.38562767  0.79862405    -0.57100
O1854       O  0.48004372  0.41515628  0.86164577    -0.60400
In1855     In  0.58518304  0.50661624  0.56058517     1.36900
C1856       C  0.56403294  0.47908767  0.61445610     0.77300
O1857       O  0.58917904  0.53084794  0.60245512    -0.61100
O1858       O  0.57115183  0.52666642  0.55321112    -0.52000
C1859       C  0.62534179  0.52399060  0.55003599     0.70000
O1860       O  0.61657570  0.51425436  0.58012057    -0.46900
C1861       C  0.57084106  0.48437601  0.49695076     0.74700
O1862       O  0.58311427  0.48730681  0.61112509    -0.58800
O1863       O  0.57193056  0.50133822  0.50108173    -0.48900
O1864       O  0.55572334  0.48442315  0.58889967    -0.55200
C1865       C  0.57788081  0.53590908  0.58464302     0.84900
O1866       O  0.61359084  0.52496848  0.52538887    -0.57100
O1867       O  0.57746222  0.47897797  0.52541778    -0.60400
In1868     In  0.75360966  0.58587840  0.52383052     1.36900
C1869       C  0.77570341  0.57998774  0.97145687     0.77300
O1870       O  0.75228372  0.60601283  0.97784421    -0.61100
O1871       O  0.76870787  0.61983507  0.52881436    -0.52000
C1872       C  0.71309631  0.56586464  0.53245310     0.70000
O1873       O  0.72210929  0.56006203  0.50968020    -0.46900
C1874       C  0.76717085  0.57828319  0.58960646     0.74700
O1875       O  0.75656927  0.56887274  0.97362341    -0.58800
O1876       O  0.76516886  0.59360888  0.58483402    -0.48900
O1877       O  0.78335019  0.59325731  0.99747290    -0.55200
C1878       C  0.76360259  0.62227785  0.99536890     0.84900
O1879       O  0.72485051  0.58192513  0.55011575    -0.57100
O1880       O  0.76131851  0.56640186  0.56125103    -0.60400
In1881     In  0.84291177  0.58512168  0.77262613     1.36900
C1882       C  0.81342999  0.57807978  0.72234615     0.77300
O1883       O  0.81687173  0.56801147  0.81445003    -0.61100
O1884       O  0.84038851  0.59718764  0.82968352    -0.52000
C1885       C  0.86122437  0.56313549  0.78315572     0.70000
O1886       O  0.84918750  0.56023783  0.75558871    -0.46900
C1887       C  0.87076799  0.62004170  0.74092929     0.74700
O1888       O  0.82013550  0.56600227  0.72720227    -0.58800
O1889       O  0.86546059  0.61853456  0.77577047    -0.48900
O1890       O  0.82114971  0.59307758  0.74468000    -0.55200
C1891       C  0.82360831  0.58208561  0.83902017     0.84900
O1892       O  0.86393469  0.57734208  0.80515613    -0.57100
O1893       O  0.86311055  0.60342141  0.72347282    -0.60400
In1894     In  0.92366098  0.49753710  0.80961855     1.36900
C1895       C  0.91787647  0.46891377  0.86060442     0.77300
O1896       O  0.90495588  0.47083796  0.77126849    -0.61100
O1897       O  0.93364560  0.49404422  0.75129840    -0.52000
C1898       C  0.90259741  0.51681327  0.80049700     0.70000
O1899       O  0.90213988  0.50775923  0.83135076    -0.46900
C1900       C  0.96007410  0.52603578  0.83379591     0.74700
O1901       O  0.90439129  0.47371128  0.85372159    -0.58800
O1902       O  0.95718496  0.51840075  0.80061108    -0.48900
O1903       O  0.93368074  0.47833047  0.84037257    -0.55200
C1904       C  0.91803615  0.47722105  0.74453328     0.84900
O1905       O  0.91369143  0.51578428  0.77474952    -0.57100
O1906       O  0.94408928  0.51999279  0.85346029    -0.60400
In1907     In  0.83741665  0.24244159  0.51176276     1.36900
C1908       C  0.81056355  0.22083598  0.95739763     0.77300
O1909       O  0.85837458  0.24181074  0.96718672    -0.61100
O1910       O  0.85780887  0.22914697  0.52187263    -0.52000
C1911       C  0.85723303  0.28248362  0.52124124     0.70000
O1912       O  0.84171436  0.27338533  0.50003639    -0.46900
C1913       C  0.81541290  0.22837222  0.57572405     0.74700
O1914       O  0.82059195  0.23994834  0.95649362    -0.58800
O1915       O  0.83201660  0.22863663  0.57040463    -0.48900
O1916       O  0.81366245  0.21321835  0.98719124    -0.55200
C1917       C  0.86467427  0.23240820  0.98786970     0.84900
O1918       O  0.86254174  0.27097025  0.53724149    -0.57100
O1919       O  0.81035937  0.23608287  0.54861746    -0.60400
In1920     In  0.92324448  0.40867643  0.56034658     1.36900
C1921       C  0.91635558  0.42899666  0.61494596     0.77300
O1922       O  0.94382532  0.40762502  0.60590132    -0.61100
O1923       O  0.95722379  0.42343975  0.55391218    -0.52000
C1924       C  0.90262800  0.36875582  0.54969811     0.70000
O1925       O  0.89403887  0.37865788  0.55888960    -0.46900
C1926       C  0.91737079  0.42277445  0.49376985     0.74700
O1927       O  0.90679287  0.40992381  0.61334150    -0.58800
O1928       O  0.93293748  0.42121762  0.50052431    -0.48900
O1929       O  0.92888837  0.43740495  0.58781955    -0.55200
C1930       C  0.96003658  0.41850291  0.58731717     0.84900
O1931       O  0.92166034  0.37928125  0.54631626    -0.57100
O1932       O  0.90463331  0.41653066  0.52085687    -0.60400
In1933     In  0.07897846  0.57786526  0.92041702     1.36900
C1934       C  0.08598669  0.55774782  0.86513698     0.77300
O1935       O  0.09891032  0.57316570  0.96302201    -0.61100
O1936       O  0.06819221  0.56306528  0.97768325    -0.52000
C1937       C  0.09791406  0.61771639  0.93193297     0.70000
O1938       O  0.10689330  0.60889384  0.91848289    -0.46900
C1939       C  0.04112712  0.56599497  0.89760526     0.74700
O1940       O  0.09148787  0.57628657  0.86212249    -0.58800
O1941       O  0.04539160  0.56181994  0.93033169    -0.48900
O1942       O  0.07810384  0.55017883  0.89723108    -0.55200
C1943       C  0.08483510  0.56428600  0.98748383     0.84900
O1944       O  0.07933019  0.60610336  0.93887934    -0.57100
O1945       O  0.05650907  0.57699877  0.87706611    -0.60400
In1946     In  0.15829606  0.74268148  0.98530496     1.36900
C1947       C  0.18578007  0.76385888  0.53948706     0.77300
O1948       O  0.18481829  0.75200427  0.94522625    -0.61100
O1949       O  0.16036837  0.75612732  0.92716037    -0.52000
C1950       C  0.14031835  0.70311785  0.97012607     0.70000
O1951       O  0.15765200  0.71273084  0.98572594    -0.46900
C1952       C  0.13156993  0.75245205  0.51320235     0.74700
O1953       O  0.17455621  0.74484459  0.54161698    -0.58800
O1954       O  0.13932570  0.75774869  0.98002856    -0.48900
O1955       O  0.18347300  0.77137419  0.50881624    -0.55200
C1956       C  0.17780037  0.75867707  0.91961005     0.84900
O1957       O  0.13216317  0.71373852  0.96350442    -0.57100
O1958       O  0.13642338  0.74095278  0.53082949    -0.60400
In1959     In  0.16587481  0.40862899  0.73178700     1.36900
C1960       C  0.19413820  0.41618291  0.78547988     0.77300
O1961       O  0.14260670  0.38909819  0.77621475    -0.61100
O1962       O  0.14668642  0.37480989  0.72777135    -0.52000
C1963       C  0.14648072  0.42932350  0.71686992     0.70000
O1964       O  0.15712145  0.43208256  0.74671531    -0.46900
C1965       C  0.18784055  0.41415264  0.66865317     0.74700
O1966       O  0.18686907  0.42772199  0.77956206    -0.58800
O1967       O  0.17014368  0.39924297  0.67305778    -0.48900
O1968       O  0.18759387  0.40143078  0.76258698    -0.55200
C1969       C  0.13801098  0.37267244  0.75983391     0.84900
O1970       O  0.14596976  0.41613588  0.69445980    -0.57100
O1971       O  0.19395248  0.42665442  0.69607897    -0.60400
In1972     In  0.07894073  0.48868073  0.67070112     1.36900
C1973       C  0.08352725  0.51656866  0.61879205     0.77300
O1974       O  0.05858670  0.46466270  0.62835383    -0.61100
O1975       O  0.04516800  0.46856803  0.67849207    -0.52000
C1976       C  0.10133911  0.47080342  0.68216302     0.70000
O1977       O  0.10294865  0.48099008  0.65225379    -0.46900
C1978       C  0.08539393  0.51084590  0.73361812     0.74700
O1979       O  0.09644619  0.51074438  0.62264595    -0.58800
O1980       O  0.07021002  0.49334359  0.72976417    -0.48900
O1981       O  0.06886690  0.50833117  0.64203796    -0.55200
C1982       C  0.04236402  0.45972847  0.64652254     0.84900
O1983       O  0.08832909  0.46991019  0.70587079    -0.57100
O1984       O  0.09785138  0.51659903  0.70593635    -0.60400
In1985     In  0.24515484  0.83456520  0.73490209     1.36900
C1986       C  0.22356974  0.80832137  0.78969221     0.77300
O1987       O  0.24722590  0.85683181  0.77948996    -0.61100
O1988       O  0.23042939  0.85360987  0.72837350    -0.52000
C1989       C  0.28528555  0.85430796  0.72268339     0.70000
O1990       O  0.27645061  0.83808812  0.74191552    -0.46900
C1991       C  0.23032356  0.81233094  0.67135398     0.74700
O1992       O  0.24279416  0.81662008  0.78840550    -0.58800
O1993       O  0.23183469  0.82947445  0.67514669    -0.48900
O1994       O  0.21572548  0.81288997  0.76211187    -0.55200
C1995       C  0.23589680  0.86175085  0.76118690     0.84900
O1996       O  0.27351817  0.86021709  0.71002924    -0.57100
O1997       O  0.23719039  0.80703954  0.69949860    -0.60400
In1998     In  0.41294000  0.91862818  0.68749363     1.36900
C1999       C  0.43550748  0.91299106  0.63563868     0.77300
O2000       O  0.41234215  0.93873420  0.64029171    -0.61100
O2001       O  0.42665115  0.95218987  0.69311301    -0.52000
C2002       C  0.37253106  0.89668781  0.69587960     0.70000
O2003       O  0.38300404  0.88927607  0.68333323    -0.46900
C2004       C  0.42715175  0.91439027  0.75545591     0.74700
O2005       O  0.41627857  0.90398227  0.63368515    -0.58800
O2006       O  0.42572419  0.92970805  0.74683315    -0.48900
O2007       O  0.44272110  0.92381600  0.66518431    -0.55200
C2008       C  0.42248031  0.95489000  0.65910276     0.84900
O2009       O  0.38281584  0.91523572  0.70371917    -0.57100
O2010       O  0.42039705  0.90088781  0.72983373    -0.60400
In2011     In  0.59077819  0.84140185  0.99507075     1.36900
C2012       C  0.58628483  0.81494111  0.54963156     0.77300
O2013       O  0.56998760  0.81483882  0.95775530    -0.61100
O2014       O  0.59917961  0.83573571  0.93625819    -0.52000
C2015       C  0.56881701  0.85969783  0.98574000     0.70000
O2016       O  0.56247652  0.84353056  0.00466224    -0.46900
C2017       C  0.62799018  0.86930227  0.51781913     0.74700
O2018       O  0.57694526  0.82480527  0.55032607    -0.58800
O2019       O  0.62427272  0.86142658  0.98473853    -0.48900
O2020       O  0.59750492  0.81848220  0.52054978    -0.55200
C2021       C  0.58266641  0.81949382  0.93073836     0.84900
O2022       O  0.58649013  0.86648128  0.97222827    -0.57100
O2023       O  0.61232973  0.86381382  0.53831749    -0.60400
In2024     In  0.50326184  0.92038000  0.93875579     1.36900
C2025       C  0.47520277  0.91348483  0.88529811     0.77300
O2026       O  0.47839065  0.90054806  0.97976108    -0.61100
O2027       O  0.49852590  0.93094392  0.99586649    -0.52000
C2028       C  0.52409675  0.90134506  0.95224206     0.70000
O2029       O  0.50650277  0.89255514  0.93749910    -0.46900
C2030       C  0.52985421  0.95596658  0.90851137     0.74700
O2031       O  0.48594351  0.90504339  0.88505642    -0.58800
O2032       O  0.52301879  0.95405076  0.94246541    -0.48900
O2033       O  0.47824915  0.92463780  0.91419691    -0.55200
C2034       C  0.48299849  0.91427402  0.00437423     0.84900
O2035       O  0.53091360  0.91973852  0.95972597    -0.57100
O2036       O  0.52372048  0.93945274  0.89107507    -0.60400
In2037     In  0.25609547  0.40914555  0.98264485     1.36900
C2038       C  0.23433789  0.41459363  0.53634106     0.77300
O2039       O  0.24578053  0.42669542  0.94515443    -0.61100
O2040       O  0.24448026  0.40052711  0.92191252    -0.52000
C2041       C  0.29645599  0.43043120  0.97198585     0.70000
O2042       O  0.28742885  0.43548617  0.99623095    -0.46900
C2043       C  0.24732274  0.37322499  0.51118218     0.74700
O2044       O  0.25322739  0.42663943  0.53208021    -0.58800
O2045       O  0.25857854  0.38954079  0.02865306    -0.48900
O2046       O  0.22669125  0.40048452  0.51200257    -0.55200
C2047       C  0.24110681  0.41494947  0.91666172     0.84900
O2048       O  0.28484999  0.41447277  0.95393793    -0.57100
O2049       O  0.24187065  0.37546499  0.47797501    -0.60400
In2050     In  0.42398730  0.49206146  0.93841880     1.36900
C2051       C  0.44442559  0.51906495  0.88304798     0.77300
O2052       O  0.43266219  0.51964102  0.97448959    -0.61100
O2053       O  0.43708888  0.49645856  0.99792868    -0.52000
C2054       C  0.38393701  0.47364122  0.95063223     0.70000
O2055       O  0.39237738  0.48514987  0.92218485    -0.46900
C2056       C  0.43262000  0.46399051  0.91401925     0.74700
O2057       O  0.42534893  0.51083881  0.88686772    -0.58800
O2058       O  0.44067771  0.47479701  0.94334780    -0.48900
O2059       O  0.45290977  0.51398237  0.90862192    -0.55200
C2060       C  0.43920809  0.51381134  0.00242836     0.84900
O2061       O  0.39598185  0.47153398  0.97281504    -0.57100
O2062       O  0.41902976  0.46664846  0.89869086    -0.60400
In2063     In  0.51252794  0.58420920  0.68795259     1.36900
C2064       C  0.48568847  0.56181233  0.63389231     0.77300
O2065       O  0.53378141  0.58681311  0.64017768    -0.61100
O2066       O  0.53495933  0.57312089  0.69267502    -0.52000
C2067       C  0.52883526  0.62377430  0.70238601     0.70000
O2068       O  0.51129618  0.61334524  0.68791278    -0.46900
C2069       C  0.49268940  0.56738476  0.75345179     0.74700
O2070       O  0.49488341  0.58095029  0.63308686    -0.58800
O2071       O  0.51018293  0.57003278  0.74619489    -0.48900
O2072       O  0.48973765  0.55462157  0.66317943    -0.55200
C2073       C  0.54122251  0.57760630  0.65835380     0.84900
O2074       O  0.53776845  0.61386899  0.70864011    -0.57100
O2075       O  0.48566208  0.57386099  0.72748521    -0.60400
In2076     In  0.58481092  0.74958779  0.74650306     1.36900
C2077       C  0.57818890  0.77128881  0.79853559     0.77300
O2078       O  0.60510206  0.75134500  0.79548054    -0.61100
O2079       O  0.61860100  0.76195852  0.74064060    -0.52000
C2080       C  0.56465897  0.70959527  0.73481796     0.70000
O2081       O  0.55585920  0.71884976  0.74695991    -0.46900
C2082       C  0.58140671  0.76507361  0.67991901     0.74700
O2083       O  0.57080952  0.75238426  0.80198986    -0.58800
O2084       O  0.59743601  0.76511226  0.69022718    -0.48900
O2085       O  0.58745803  0.77839404  0.76723507    -0.55200
C2086       C  0.62129807  0.75984568  0.77597960     0.84900
O2087       O  0.58345206  0.72084338  0.72915194    -0.57100
O2088       O  0.56671395  0.75608914  0.70306289    -0.60400
C2089       C  0.52561730  0.65459130  0.71095499    -0.20600
C2090       C  0.53806730  0.64569464  0.71156298    -0.07100
C2091       C  0.55899065  0.65793090  0.72110172     0.13700
C2092       C  0.56680739  0.67850819  0.72882632    -0.20600
C2093       C  0.55447661  0.68743678  0.72800287    -0.07100
C2094       C  0.53348820  0.67523886  0.71935794     0.13700
C2095       C  0.51939452  0.68386623  0.71802756    -0.24000
H2096       H  0.50958628  0.64532769  0.70399573     0.15000
H2097       H  0.58284778  0.68776278  0.73576263     0.15000
C2098       C  0.57349549  0.64975173  0.72285997    -0.23900
H2099       H  0.50364256  0.67228167  0.70974343     0.05200
H2100       H  0.52498343  0.69631394  0.69647946     0.08500
H2101       H  0.51864706  0.68968890  0.74692443     0.08500
H2102       H  0.57391267  0.64324828  0.69449645     0.08500
H2103       H  0.56866043  0.63805400  0.74581102     0.08500
H2104       H  0.58931162  0.66171125  0.72978860     0.05200
C2105       C  0.45284762  0.51676456  0.56869013    -0.20600
C2106       C  0.44921513  0.52624611  0.53728458    -0.07100
C2107       C  0.45633626  0.54729260  0.53925678     0.13700
C2108       C  0.46764986  0.55828723  0.57162128    -0.20600
C2109       C  0.47197994  0.54891578  0.60235722    -0.07100
C2110       C  0.46399467  0.52766770  0.60112451     0.13700
C2111       C  0.46733677  0.51616729  0.63321809    -0.24000
H2112       H  0.44721123  0.50063172  0.56761378     0.15000
H2113       H  0.47349141  0.57445729  0.57252499     0.15000
C2114       C  0.45261139  0.55849995  0.50719371    -0.23900
H2115       H  0.45972539  0.49969195  0.62724734     0.05200
H2116       H  0.46091570  0.51809447  0.66059882     0.08500
H2117       H  0.48387011  0.52162674  0.63666324     0.08500
H2118       H  0.43596948  0.55218057  0.50306949     0.08500
H2119       H  0.45961587  0.55720977  0.98000354     0.08500
H2120       H  0.45935627  0.57484760  0.51371686     0.05200
C2121       C  0.47757493  0.54385637  0.85394938    -0.20600
C2122       C  0.45619485  0.53302068  0.85092027    -0.07100
C2123       C  0.44698353  0.53468135  0.81643231     0.13700
C2124       C  0.45939526  0.54671580  0.78599589    -0.20600
C2125       C  0.48076820  0.55667137  0.78836294    -0.07100
C2126       C  0.48997127  0.55541687  0.82311682     0.13700
C2127       C  0.51279458  0.56616746  0.82816899    -0.24000
H2128       H  0.48474014  0.54283461  0.88036580     0.15000
H2129       H  0.45229894  0.54764171  0.75939596     0.15000
C2130       C  0.42420938  0.52321881  0.81052036    -0.23900
H2131       H  0.51720918  0.56441200  0.85794221     0.05200
H2132       H  0.51933981  0.58258460  0.82242634     0.08500
H2133       H  0.51954843  0.55979235  0.80815822     0.08500
H2134       H  0.41671737  0.52798569  0.83226722     0.08500
H2135       H  0.41840485  0.50671543  0.81307044     0.08500
H2136       H  0.41983652  0.52606250  0.78150048     0.05200
C2137       C  0.34888190  0.45389289  0.92500407    -0.20600
C2138       C  0.36166598  0.46314078  0.95676614    -0.07100
C2139       C  0.35298604  0.46232038  0.99324115     0.13700
C2140       C  0.33164699  0.45201691  0.99711162    -0.20600
C2141       C  0.31881153  0.44203056  0.96563509    -0.07100
C2142       C  0.32758492  0.44316084  0.92898300     0.13700
C2143       C  0.31468151  0.43356992  0.89364131    -0.24000
H2144       H  0.35563639  0.45473665  0.89703447     0.15000
H2145       H  0.32498019  0.45132955  0.52510619     0.15000
C2146       C  0.36614716  0.47265924  0.52793626    -0.23900
H2147       H  0.32410628  0.43705587  0.86716775     0.05200
H2148       H  0.30391588  0.43932820  0.88929857     0.08500
H2149       H  0.30605016  0.41688076  0.89695282     0.08500
H2150       H  0.37626779  0.48898834  0.52162381     0.08500
H2151       H  0.37556463  0.46567451  0.53527360     0.08500
H2152       H  0.35684774  0.47133501  0.55367938     0.05200
C2153       C  0.59039829  0.81656776  0.86254800    -0.20600
C2154       C  0.57901203  0.80698283  0.89566783    -0.07100
C2155       C  0.56583881  0.78575305  0.89521555     0.13700
C2156       C  0.56508267  0.77470465  0.86222661    -0.20600
C2157       C  0.57728738  0.78419078  0.82975516    -0.07100
C2158       C  0.58983017  0.80557796  0.82973976     0.13700
C2159       C  0.60341766  0.81710991  0.79621169    -0.24000
H2160       H  0.60033824  0.83282968  0.86273925     0.15000
H2161       H  0.55541998  0.75840847  0.86241569     0.15000
C2162       C  0.55334902  0.77441651  0.92994120    -0.23900
H2163       H  0.61204382  0.83365944  0.80156496     0.05200
H2164       H  0.59407008  0.81459460  0.76984914     0.08500
H2165       H  0.61477517  0.81217288  0.79128956     0.08500
H2166       H  0.54231663  0.77952406  0.93684398     0.08500
H2167       H  0.56353288  0.77706985  0.95506885     0.08500
H2168       H  0.54450253  0.75785362  0.92482127     0.05200
C2169       C  0.56831938  0.79457645  0.60729604    -0.20600
C2170       C  0.58430386  0.80062878  0.58071030    -0.07100
C2171       C  0.59818566  0.79337373  0.58525172     0.13700
C2172       C  0.59614511  0.78106388  0.61704410    -0.20600
C2173       C  0.58064105  0.77565923  0.64445944    -0.07100
C2174       C  0.56616939  0.78208157  0.63888911     0.13700
C2175       C  0.54874293  0.77642936  0.66642851    -0.24000
H2176       H  0.55750472  0.79985321  0.60361398     0.15000
H2177       H  0.60709179  0.77596636  0.62096377     0.15000
C2178       C  0.61560652  0.79890192  0.55770633    -0.23900
H2179       H  0.53910022  0.78295503  0.65749463     0.05200
H2180       H  0.55472168  0.78219572  0.69575449     0.08500
H2181       H  0.53882840  0.75973743  0.66728249     0.08500
H2182       H  0.62575866  0.81556762  0.55703812     0.08500
H2183       H  0.60959112  0.79325965  0.52834462     0.08500
H2184       H  0.62502182  0.79208548  0.56639533     0.05200
C2185       C  0.56705457  0.88957938  0.96302634    -0.20600
C2186       C  0.55682153  0.87004422  0.97909184    -0.07100
C2187       C  0.53560504  0.86089818  0.98652433     0.13700
C2188       C  0.52531585  0.87141888  0.97693424    -0.20600
C2189       C  0.53565851  0.89088945  0.96083237    -0.07100
C2190       C  0.55679529  0.90007729  0.95373121     0.13700
C2191       C  0.56849806  0.92056367  0.93473061    -0.24000
H2192       H  0.58325322  0.89669867  0.95724962     0.15000
H2193       H  0.50910327  0.86450641  0.98247497     0.15000
C2194       C  0.52355485  0.84007772  0.00402141    -0.23900
H2195       H  0.58463554  0.92487793  0.42938865     0.05200
H2196       H  0.56854705  0.93231561  0.45358466     0.08500
H2197       H  0.56139814  0.92038533  0.90650774     0.08500
H2198       H  0.52957709  0.83988913  0.03320070     0.08500
H2199       H  0.52450470  0.82882021  0.98524061     0.08500
H2200       H  0.50717933  0.83538667  0.00724203     0.05200
C2201       C  0.43893065  0.89775302  0.57484965    -0.20600
C2202       C  0.44847023  0.91175519  0.60481436    -0.07100
C2203       C  0.46980996  0.92528935  0.60281607     0.13700
C2204       C  0.48070358  0.92481059  0.57057868    -0.20600
C2205       C  0.47097547  0.91157064  0.53978705    -0.07100
C2206       C  0.44982622  0.89756505  0.54224534     0.13700
C2207       C  0.43832850  0.88310604  0.00992117    -0.24000
H2208       H  0.42266378  0.88734695  0.57622239     0.15000
H2209       H  0.49691625  0.93542509  0.56876660     0.15000
C2210       C  0.48129273  0.94101916  0.63331982    -0.23900
H2211       H  0.42179180  0.87381625  0.01630806     0.05200
H2212       H  0.44429464  0.87259540  0.00548023     0.08500
H2213       H  0.43995729  0.89168791  0.98291025     0.08500
H2214       H  0.47997540  0.93356283  0.66160196     0.08500
H2215       H  0.47516403  0.95152855  0.63538553     0.08500
H2216       H  0.49778700  0.95027511  0.62653035     0.05200
C2217       C  0.44541954  0.89982676  0.79045149    -0.20600
C2218       C  0.43722980  0.91278359  0.79112811    -0.07100
C2219       C  0.44007637  0.92457248  0.82448269     0.13700
C2220       C  0.45170805  0.92364109  0.85533205    -0.20600
C2221       C  0.46098544  0.91159444  0.85364050    -0.07100
C2222       C  0.45744775  0.89924221  0.82081354     0.13700
C2223       C  0.46659782  0.88573184  0.81671315    -0.24000
H2224       H  0.44319427  0.89070111  0.76503434     0.15000
H2225       H  0.45412553  0.93298902  0.88047675     0.15000
C2226       C  0.43095457  0.93813788  0.82802106    -0.23900
H2227       H  0.46166645  0.87680959  0.78961492     0.05200
H2228       H  0.46173266  0.87486679  0.84118360     0.08500
H2229       H  0.48347907  0.89500770  0.81589556     0.08500
H2230       H  0.41420951  0.92920026  0.82352161     0.08500
H2231       H  0.43787486  0.95054594  0.80644586     0.08500
H2232       H  0.43373618  0.94523516  0.85698884     0.05200
C2233       C  0.31790935  0.85431256  0.71422286    -0.20600
C2234       C  0.30754210  0.86530435  0.71512298    -0.07100
C2235       C  0.31862870  0.88646497  0.70880864     0.13700
C2236       C  0.33965346  0.89596847  0.70196679    -0.20600
C2237       C  0.35007539  0.88505300  0.70110642    -0.07100
C2238       C  0.33898146  0.86384248  0.70696506     0.13700
C2239       C  0.34918450  0.85117925  0.70657805    -0.24000
H2240       H  0.30942266  0.83810154  0.71893451     0.15000
H2241       H  0.34807426  0.91219089  0.69738882     0.15000
C2242       C  0.30869992  0.89937896  0.71060683    -0.23900
H2243       H  0.33825533  0.83502462  0.71294967     0.05200
H2244       H  0.36139936  0.85674257  0.72878317     0.08500
H2245       H  0.35578189  0.85193300  0.67763881     0.08500
H2246       H  0.30111697  0.89732688  0.73898668     0.08500
H2247       H  0.29736878  0.89520835  0.68699342     0.08500
H2248       H  0.31997407  0.91571289  0.70719355     0.05200
C2249       C  0.22027585  0.42748307  0.88385274    -0.20600
C2250       C  0.23145002  0.41735444  0.88103933    -0.07100
C2251       C  0.23221823  0.40902568  0.84501290     0.13700
C2252       C  0.22068363  0.40984720  0.81384676    -0.20600
C2253       C  0.20844976  0.41883692  0.81743788    -0.07100
C2254       C  0.20874089  0.42830124  0.85270489     0.13700
C2255       C  0.19618660  0.43841950  0.85855244    -0.24000
H2256       H  0.21983358  0.43408870  0.91124154     0.15000
H2257       H  0.22083398  0.40294124  0.78662883     0.15000
C2258       C  0.24522023  0.39939219  0.83894181    -0.23900
H2259       H  0.19789600  0.44454048  0.88821486     0.05200
H2260       H  0.17979208  0.42734597  0.85394959     0.08500
H2261       H  0.20117157  0.45125437  0.83805726     0.08500
H2262       H  0.23939791  0.38542438  0.85657300     0.08500
H2263       H  0.26126033  0.41019933  0.84703700     0.08500
H2264       H  0.24509352  0.39507544  0.80831165     0.05200
C2265       C  0.19034300  0.40837449  0.59914437    -0.20600
C2266       C  0.20036018  0.41632240  0.63430744    -0.07100
C2267       C  0.22178196  0.42489262  0.63635525     0.13700
C2268       C  0.23248030  0.42466663  0.60347662    -0.20600
C2269       C  0.22237313  0.41614668  0.56859804    -0.07100
C2270       C  0.20104904  0.40830874  0.56619143     0.13700
C2271       C  0.18945428  0.40019765  0.52895409    -0.24000
H2272       H  0.17396733  0.40203418  0.59751445     0.15000
H2273       H  0.24878748  0.43061800  0.60539778     0.15000
C2274       C  0.23340176  0.43351673  0.67338800    -0.23900
H2275       H  0.17326258  0.39624684  0.53177977     0.05200
H2276       H  0.18955275  0.38625425  0.52036253     0.08500
H2277       H  0.19646155  0.41180479  0.50585691     0.08500
H2278       H  0.22728803  0.42182982  0.69648501     0.08500
H2279       H  0.23205593  0.44676385  0.68229584     0.08500
H2280       H  0.24988206  0.43869747  0.67007629     0.05200
C2281       C  0.13332950  0.44496842  0.66997204    -0.20600
C2282       C  0.13544881  0.44049773  0.70854831    -0.07100
C2283       C  0.12651251  0.44624579  0.73807294     0.13700
C2284       C  0.11560283  0.45608742  0.72826995    -0.20600
C2285       C  0.11360552  0.46076974  0.68978124    -0.07100
C2286       C  0.12280248  0.45527231  0.66020194     0.13700
C2287       C  0.12130089  0.45977900  0.61829039    -0.24000
H2288       H  0.14015075  0.44054183  0.64732131     0.15000
H2289       H  0.10863366  0.46025901  0.75105258     0.15000
C2290       C  0.12779216  0.44149430  0.77993714    -0.23900
H2291       H  0.12884463  0.45383234  0.59916038     0.05200
H2292       H  0.12891230  0.47637731  0.61367853     0.08500
H2293       H  0.10504335  0.45265990  0.60953783     0.08500
H2294       H  0.14389921  0.44970931  0.78974521     0.08500
H2295       H  0.12145716  0.42496270  0.78372427     0.08500
H2296       H  0.11903785  0.44616135  0.79883046     0.05200
C2297       C  0.18202558  0.78098424  0.86445694    -0.20600
C2298       C  0.18927986  0.76983460  0.88467865    -0.07100
C2299       C  0.20768692  0.77091776  0.87254333     0.13700
C2300       C  0.21830077  0.78325882  0.84087173    -0.20600
C2301       C  0.21119150  0.79471795  0.82137712    -0.07100
C2302       C  0.19283801  0.79364489  0.83355669     0.13700
C2303       C  0.18502457  0.80661999  0.81581356    -0.24000
H2304       H  0.16811572  0.78044919  0.87381822     0.15000
H2305       H  0.23238777  0.78415984  0.83153088     0.15000
C2306       C  0.21639837  0.75932298  0.89263396    -0.23900
H2307       H  0.17127308  0.80478661  0.83091728     0.05200
H2308       H  0.18073094  0.80233771  0.78521866     0.08500
H2309       H  0.19693483  0.82282452  0.81764653     0.08500
H2310       H  0.20503354  0.74291788  0.89259578     0.08500
H2311       H  0.22064233  0.76474582  0.92274942     0.08500
H2312       H  0.23037210  0.76137766  0.87809106     0.05200
C2313       C  0.19941781  0.76688978  0.60613491    -0.20600
C2314       C  0.19951157  0.77644582  0.57127933    -0.07100
C2315       C  0.21139790  0.79787482  0.56888184     0.13700
C2316       C  0.22170666  0.80898917  0.60179080    -0.20600
C2317       C  0.22081850  0.79946198  0.63697911    -0.07100
C2318       C  0.20986155  0.77806957  0.63897719     0.13700
C2319       C  0.20817793  0.76688076  0.67602334    -0.24000
H2320       H  0.19052178  0.75055630  0.60818720     0.15000
H2321       H  0.23031687  0.82535832  0.60019490     0.15000
C2322       C  0.21323872  0.80941481  0.53219822    -0.23900
H2323       H  0.19833101  0.75027314  0.67263996     0.05200
H2324       H  0.20142696  0.77185014  0.69894906     0.08500
H2325       H  0.22348756  0.76982639  0.68519655     0.08500
H2326       H  0.19818723  0.80753229  0.52406765     0.08500
H2327       H  0.21916701  0.80396511  0.50860419     0.08500
H2328       H  0.22391622  0.82588859  0.53552453     0.05200
C2329       C  0.07041308  0.54763441  0.54999016    -0.20600
C2330       C  0.08680468  0.55508535  0.52404962    -0.07100
C2331       C  0.10340196  0.55198661  0.53240683     0.13700
C2332       C  0.10224412  0.54008773  0.56452745    -0.20600
C2333       C  0.08502597  0.53124080  0.58864983    -0.07100
C2334       C  0.06921234  0.53579502  0.58199139     0.13700
C2335       C  0.05060407  0.52788350  0.60741547    -0.24000
H2336       H  0.05794291  0.55046555  0.54443662     0.15000
H2337       H  0.11464053  0.53714811  0.57006273     0.15000
C2338       C  0.12212363  0.56058351  0.50730441    -0.23900
H2339       H  0.04019277  0.53343380  0.59802938     0.05200
H2340       H  0.05527370  0.53302825  0.63757106     0.08500
H2341       H  0.04179384  0.51111402  0.60626482     0.08500
H2342       H  0.12935426  0.57731252  0.50610474     0.08500
H2343       H  0.11793904  0.55422011  0.47776453     0.08500
H2344       H  0.13363836  0.55689662  0.51869339     0.05200
C2345       C  0.08039788  0.51388807  0.80318601    -0.20600
C2346       C  0.08784316  0.52354607  0.76762605    -0.07100
C2347       C  0.09581188  0.54467249  0.76477663     0.13700
C2348       C  0.09568351  0.55546551  0.79747181    -0.20600
C2349       C  0.08767838  0.54573283  0.83298416    -0.07100
C2350       C  0.08022922  0.52459271  0.83589429     0.13700
C2351       C  0.07167059  0.51289564  0.87287346    -0.24000
H2352       H  0.07432750  0.49769159  0.80521452     0.15000
H2353       H  0.10135252  0.57156556  0.79487405     0.15000
C2354       C  0.10345900  0.55578115  0.72696913    -0.23900
H2355       H  0.06710098  0.49669192  0.86970021     0.05200
H2356       H  0.05786291  0.51349179  0.88149756     0.08500
H2357       H  0.08335684  0.51926734  0.89605170     0.08500
H2358       H  0.09119644  0.54909688  0.70486244     0.08500
H2359       H  0.11686098  0.55477988  0.71706341     0.08500
H2360       H  0.10826137  0.57206197  0.72965132     0.05200
C2361       C  0.12960181  0.64968480  0.94701930    -0.20600
C2362       C  0.10851180  0.63970688  0.94019171    -0.07100
C2363       C  0.09812709  0.65082781  0.94226682     0.13700
C2364       C  0.10902918  0.67137551  0.95216892    -0.20600
C2365       C  0.13004041  0.68126737  0.96012878    -0.07100
C2366       C  0.14051195  0.67025385  0.95700299     0.13700
C2367       C  0.16317939  0.67998391  0.96335926    -0.24000
H2368       H  0.13759743  0.64122914  0.94514734     0.15000
H2369       H  0.10096232  0.67976343  0.95393490     0.15000
C2370       C  0.07570646  0.64143712  0.93317809    -0.23900
H2371       H  0.16879756  0.66922493  0.95826113     0.05200
H2372       H  0.16698777  0.68533100  0.49362976     0.08500
H2373       H  0.17133013  0.69289532  0.94312241     0.08500
H2374       H  0.06656402  0.62959227  0.95480307     0.08500
H2375       H  0.07258541  0.63474959  0.90381743     0.08500
H2376       H  0.07054531  0.65275714  0.93386433     0.05200
C2377       C  0.99723311  0.43244170  0.57790398    -0.20600
C2378       C  0.98078194  0.42580273  0.60358100    -0.07100
C2379       C  0.98480419  0.42807635  0.64380161     0.13700
C2380       C  0.00509998  0.43810845  0.65686278    -0.20600
C2381       C  0.02158838  0.44591802  0.63104925    -0.07100
C2382       C  0.01753512  0.44235949  0.59098958     0.13700
C2383       C  0.03438107  0.44975265  0.56150607    -0.24000
H2384       H  0.99420713  0.43044587  0.54715944     0.15000
H2385       H  0.00811279  0.44055399  0.68755726     0.15000
C2386       C  0.96796625  0.42098412  0.67326117    -0.23900
H2387       H  0.02832844  0.44566830  0.53165050     0.05200
H2388       H  0.04400073  0.44278784  0.56713218     0.08500
H2389       H  0.04384513  0.46648526  0.56277181     0.08500
H2390       H  0.95790824  0.40435126  0.67114982     0.08500
H2391       H  0.95894398  0.42866033  0.66837222     0.08500
H2392       H  0.97400812  0.42441407  0.70321412     0.05200
C2393       C  0.88780450  0.31330191  0.54497800    -0.20600
C2394       C  0.86851734  0.30472165  0.52733591    -0.07100
C2395       C  0.86051100  0.31744612  0.51725084     0.13700
C2396       C  0.87194490  0.33822650  0.52536273    -0.20600
C2397       C  0.89125737  0.34671531  0.54266792    -0.07100
C2398       C  0.89927662  0.33406884  0.55269332     0.13700
C2399       C  0.91956796  0.34216537  0.57281194    -0.24000
H2400       H  0.89401880  0.30368601  0.55288685     0.15000
H2401       H  0.86586998  0.34799496  0.51767551     0.15000
C2402       C  0.83988978  0.30938129  0.49853718    -0.23900
H2403       H  0.92282596  0.32990960  0.58060646     0.05200
H2404       H  0.91960218  0.34996082  0.59983821     0.08500
H2405       H  0.93202593  0.35288600  0.55361927     0.08500
H2406       H  0.82793289  0.29771868  0.51738103     0.08500
H2407       H  0.83977264  0.30277007  0.97000248     0.08500
H2408       H  0.83598597  0.32146448  0.49368708     0.05200
C2409       C  0.90273862  0.44441270  0.71023155    -0.20600
C2410       C  0.91570691  0.46545564  0.70906521    -0.07100
C2411       C  0.92692747  0.47448538  0.67500556     0.13700
C2412       C  0.92580867  0.46211286  0.64420953    -0.20600
C2413       C  0.91410589  0.44091327  0.64649149    -0.07100
C2414       C  0.90190727  0.43197992  0.67966138     0.13700
C2415       C  0.88844344  0.40942357  0.68391310    -0.24000
H2416       H  0.89389247  0.43750419  0.73607550     0.15000
H2417       H  0.93481882  0.46913098  0.61859642     0.15000
C2418       C  0.94019014  0.49709501  0.67063147    -0.23900
H2419       H  0.87983350  0.40528663  0.71149829     0.05200
H2420       H  0.89786357  0.40198680  0.68371700     0.08500
H2421       H  0.87716245  0.40349925  0.66000436     0.08500
H2422       H  0.95329619  0.50285081  0.69085823     0.08500
H2423       H  0.93108885  0.50458424  0.67636278     0.08500
H2424       H  0.94655122  0.50142101  0.64103378     0.05200
C2425       C  0.90105496  0.44942594  0.92007153    -0.20600
C2426       C  0.91591245  0.45439933  0.89140434    -0.07100
C2427       C  0.92948563  0.44668890  0.89462401     0.13700
C2428       C  0.92863092  0.43542746  0.92738093    -0.20600
C2429       C  0.91492209  0.43188612  0.95755619    -0.07100
C2430       C  0.90046774  0.43846379  0.95326666     0.13700
C2431       C  0.88496829  0.43496433  0.48405553    -0.24000
H2432       H  0.89046778  0.45504230  0.91750759     0.15000
H2433       H  0.93937564  0.43000777  0.93007280     0.15000
C2434       C  0.94522991  0.45041166  0.86423965    -0.23900
H2435       H  0.87503002  0.44120605  0.97564037     0.05200
H2436       H  0.89282418  0.44238325  0.51134672     0.08500
H2437       H  0.87492295  0.41848474  0.48887763     0.08500
H2438       H  0.95687199  0.46671005  0.86318349     0.08500
H2439       H  0.93774122  0.44535522  0.83563945     0.08500
H2440       H  0.95340797  0.44199909  0.87046243     0.05200
C2441       C  0.98317003  0.53707481  0.88971914    -0.20600
C2442       C  0.98055837  0.53917016  0.85020759    -0.07100
C2443       C  0.99769202  0.55200421  0.82746558     0.13700
C2444       C  0.01713132  0.56134509  0.84443773    -0.20600
C2445       C  0.01994952  0.55795491  0.88336758    -0.07100
C2446       C  0.00257510  0.54604479  0.90660161     0.13700
C2447       C  0.00409443  0.54213390  0.94888416    -0.24000
H2448       H  0.96997002  0.52734448  0.90717921     0.15000
H2449       H  0.03028639  0.57077586  0.82665854     0.15000
C2450       C  0.99565697  0.55608798  0.78553206    -0.23900
H2451       H  0.98884048  0.53311036  0.96240015     0.05200
H2452       H  0.01229037  0.55670332  0.96460775     0.08500
H2453       H  0.01217745  0.53344108  0.95254233     0.08500
H2454       H  0.98490145  0.56194746  0.78261490     0.08500
H2455       H  0.99004587  0.54204769  0.76841339     0.08500
H2456       H  0.01050516  0.56752239  0.77302130     0.05200
C2457       C  0.87602778  0.54336591  0.75564850    -0.20600
C2458       C  0.87148931  0.55104041  0.78855342    -0.07100
C2459       C  0.87663254  0.54682704  0.82543004     0.13700
C2460       C  0.88634870  0.53525138  0.82831326    -0.20600
C2461       C  0.89146391  0.52810029  0.79532377    -0.07100
C2462       C  0.88610600  0.53214207  0.75843123     0.13700
C2463       C  0.89054536  0.52444147  0.72177152    -0.24000
H2464       H  0.87198497  0.54649512  0.72743879     0.15000
H2465       H  0.89033714  0.53210805  0.85656043     0.15000
C2466       C  0.87155217  0.55404077  0.86196361    -0.23900
H2467       H  0.88421063  0.52808318  0.69595813     0.05200
H2468       H  0.88360593  0.50774363  0.72326947     0.08500
H2469       H  0.90725571  0.53157634  0.71749611     0.08500
H2470       H  0.85493109  0.54854462  0.86305125     0.08500
H2471       H  0.88015896  0.57080710  0.86304651     0.08500
H2472       H  0.87565773  0.54837769  0.88814938     0.05200
C2473       C  0.77560171  0.58449622  0.65933115    -0.20600
C2474       C  0.77647047  0.57522081  0.62501874    -0.07100
C2475       C  0.78772568  0.56492288  0.62457096     0.13700
C2476       C  0.79870051  0.56523243  0.65762946    -0.20600
C2477       C  0.79891924  0.57567288  0.69107331    -0.07100
C2478       C  0.78663000  0.58485650  0.69234284     0.13700
C2479       C  0.78496732  0.59505669  0.72823336    -0.24000
H2480       H  0.76666625  0.59202776  0.65999301     0.15000
H2481       H  0.80799211  0.55808750  0.65664153     0.15000
C2482       C  0.78920342  0.55446384  0.58890793    -0.23900
H2483       H  0.77342647  0.59991228  0.72488351     0.05200
H2484       H  0.79977074  0.60877978  0.73455347     0.08500
H2485       H  0.78032590  0.58441156  0.75305804     0.08500
H2486       H  0.79573034  0.56546472  0.56472208     0.08500
H2487       H  0.77384781  0.54199129  0.58082558     0.08500
H2488       H  0.79915987  0.54778006  0.59355039     0.05200
C2489       C  0.80728052  0.59622272  0.93277721    -0.20600
C2490       C  0.78832159  0.57893580  0.93971272    -0.07100
C2491       C  0.78167863  0.56211418  0.91484703     0.13700
C2492       C  0.79389672  0.56338617  0.88318701    -0.20600
C2493       C  0.81241560  0.58112239  0.87510065    -0.07100
C2494       C  0.81922598  0.59774755  0.90071646     0.13700
C2495       C  0.83865086  0.61752675  0.89419496    -0.24000
H2496       H  0.81245815  0.60915871  0.95172013     0.15000
H2497       H  0.78862508  0.55053984  0.86399772     0.15000
C2498       C  0.76183098  0.54279327  0.92132414    -0.23900
H2499       H  0.84134052  0.62872957  0.91712785     0.05200
H2500       H  0.83777905  0.62430241  0.86631575     0.08500
H2501       H  0.85190232  0.61502538  0.89425022     0.08500
H2502       H  0.74884696  0.54557037  0.91775873     0.08500
H2503       H  0.76160256  0.53688351  0.95078754     0.08500
H2504       H  0.75964258  0.53091222  0.90031350     0.05200
C2505       C  0.66008597  0.54497990  0.57599874    -0.20600
C2506       C  0.64765718  0.53399311  0.54493234    -0.07100
C2507       C  0.65673018  0.53293979  0.51009271     0.13700
C2508       C  0.67811584  0.54311408  0.50715616    -0.20600
C2509       C  0.69062309  0.55483429  0.53777949    -0.07100
C2510       C  0.68140422  0.55572413  0.57272788     0.13700
C2511       C  0.69379999  0.56771150  0.60701846    -0.24000
H2512       H  0.65301486  0.54563095  0.60270125     0.15000
H2513       H  0.68508325  0.54224732  0.98049641     0.15000
C2514       C  0.64395001  0.52071920  0.97634424    -0.23900
H2515       H  0.68404323  0.56574912  0.63239891     0.05200
H2516       H  0.70218859  0.58407296  0.59980265     0.08500
H2517       H  0.70472274  0.56265290  0.61552103     0.08500
H2518       H  0.63452968  0.52713135  0.96551183     0.08500
H2519       H  0.63383947  0.50477518  0.98539601     0.08500
H2520       H  0.65353154  0.52080048  0.95205145     0.05200
C2521       C  0.57479495  0.55416215  0.64110196    -0.20600
C2522       C  0.57188858  0.55021248  0.60126220    -0.07100
C2523       C  0.56190730  0.55858989  0.57969990     0.13700
C2524       C  0.55365544  0.56905405  0.59904905    -0.20600
C2525       C  0.55450114  0.57088213  0.63949350    -0.07100
C2526       C  0.56606108  0.56412039  0.66057664     0.13700
C2527       C  0.56903420  0.56693449  0.70363511    -0.24000
H2528       H  0.58291224  0.54831753  0.65770927     0.15000
H2529       H  0.54526684  0.57464468  0.58257854     0.15000
C2530       C  0.55943784  0.55629064  0.53650787    -0.23900
H2531       H  0.57978001  0.56212987  0.71465906     0.05200
H2532       H  0.55432494  0.55765614  0.71876425     0.08500
H2533       H  0.57539251  0.58314126  0.71095592     0.08500
H2534       H  0.54934356  0.54016726  0.52890702     0.08500
H2535       H  0.57457650  0.56207113  0.52273018     0.08500
H2536       H  0.55241478  0.56490084  0.52434503     0.05200
C2537       C  0.54941037  0.45061525  0.71040022    -0.20600
C2538       C  0.52806073  0.44131262  0.70914155    -0.07100
C2539       C  0.51861137  0.44312219  0.67519808     0.13700
C2540       C  0.53082087  0.45481871  0.64426408    -0.20600
C2541       C  0.55223346  0.46498319  0.64631798    -0.07100
C2542       C  0.56162936  0.46247204  0.67974210     0.13700
C2543       C  0.58446946  0.47264179  0.68428468    -0.24000
H2544       H  0.55672219  0.44921063  0.73627337     0.15000
H2545       H  0.52352150  0.45642263  0.61856884     0.15000
C2546       C  0.49576103  0.43283224  0.67109595    -0.23900
H2547       H  0.58894465  0.46896295  0.71243881     0.05200
H2548       H  0.59123612  0.48931752  0.68291069     0.08500
H2549       H  0.59097319  0.46749683  0.66122387     0.08500
H2550       H  0.48945085  0.43919996  0.69212317     0.08500
H2551       H  0.48897596  0.41632112  0.67603901     0.08500
H2552       H  0.49112923  0.43502971  0.64181358     0.05200
C2553       C  0.56116683  0.48179685  0.92802495    -0.20600
C2554       C  0.56210305  0.47196240  0.96162242    -0.07100
C2555       C  0.55377880  0.45070747  0.96092795     0.13700
C2556       C  0.54301019  0.43979793  0.92806214    -0.20600
C2557       C  0.54092867  0.44955222  0.89526902    -0.07100
C2558       C  0.55109705  0.47101921  0.89469148     0.13700
C2559       C  0.55144946  0.48292264  0.85949667    -0.24000
H2560       H  0.56817680  0.49813155  0.92798069     0.15000
H2561       H  0.53577466  0.42345232  0.92839598     0.15000
C2562       C  0.55567527  0.43926588  0.99478585    -0.23900
H2563       H  0.56112912  0.49947911  0.86394886     0.05200
H2564       H  0.53584114  0.47992025  0.85271490     0.08500
H2565       H  0.55781935  0.47879425  0.83456921     0.08500
H2566       H  0.54840349  0.44148232  0.52068549     0.08500
H2567       H  0.57202435  0.44467002  0.00072181     0.08500
H2568       H  0.54815704  0.42276795  0.98909150     0.05200
C2569       C  0.44443584  0.43229204  0.84502133    -0.20600
C2570       C  0.46063666  0.43219809  0.86459028    -0.07100
C2571       C  0.46584290  0.44044471  0.90215426     0.13700
C2572       C  0.45533800  0.44941167  0.91831255    -0.20600
C2573       C  0.43990830  0.45066474  0.89795036    -0.07100
C2574       C  0.43378216  0.44117106  0.86134719     0.13700
C2575       C  0.41641412  0.44059115  0.83882617    -0.24000
H2576       H  0.44033772  0.42567834  0.81645452     0.15000
H2577       H  0.45992282  0.45633892  0.94654299     0.15000
C2578       C  0.48334332  0.44110829  0.92448491    -0.23900
H2579       H  0.41336773  0.43184662  0.81166536     0.05200
H2580       H  0.42009542  0.45615346  0.83081357     0.08500
H2581       H  0.40227753  0.43321483  0.85640575     0.08500
H2582       H  0.49763957  0.44930839  0.90751674     0.08500
H2583       H  0.48013895  0.42551972  0.93081548     0.08500
H2584       H  0.48584469  0.44901699  0.95253339     0.05200
C2585       C  0.46453458  0.32125928  0.77240738    -0.20600
C2586       C  0.44395744  0.31063261  0.78389131    -0.07100
C2587       C  0.43526256  0.32161797  0.80034663     0.13700
C2588       C  0.44742840  0.34256254  0.80556897    -0.20600
C2589       C  0.46802264  0.35304813  0.79480835    -0.07100
C2590       C  0.47665101  0.34228566  0.77755518     0.13700
C2591       C  0.49832847  0.35289963  0.76324288    -0.24000
H2592       H  0.47125990  0.31307423  0.75933519     0.15000
H2593       H  0.44077318  0.35087118  0.81843009     0.15000
C2594       C  0.41317102  0.31168688  0.81217540    -0.23900
H2595       H  0.50221658  0.34228795  0.74878572     0.05200
H2596       H  0.50900286  0.35986887  0.78781569     0.08500
H2597       H  0.50055302  0.36478922  0.74202153     0.08500
H2598       H  0.41005624  0.30051797  0.83554839     0.08500
H2599       H  0.40323038  0.30412308  0.78689363     0.08500
H2600       H  0.40905719  0.32282005  0.82333469     0.05200
C2601       C  0.40912010  0.18145635  0.65501672    -0.20600
C2602       C  0.41953127  0.19149914  0.62128490    -0.07100
C2603       C  0.43064442  0.21292553  0.62091647     0.13700
C2604       C  0.43011882  0.22359400  0.65342090    -0.20600
C2605       C  0.41883415  0.21356984  0.68646846    -0.07100
C2606       C  0.40875295  0.19211661  0.68770699     0.13700
C2607       C  0.39747182  0.18016208  0.72300009    -0.24000
H2608       H  0.40088610  0.16506671  0.65558421     0.15000
H2609       H  0.43810923  0.23997216  0.65242996     0.15000
C2610       C  0.44238570  0.22479933  0.58593835    -0.23900
H2611       H  0.39154936  0.16370382  0.71922970     0.05200
H2612       H  0.38419102  0.18219956  0.72880943     0.08500
H2613       H  0.40789922  0.18516530  0.74829267     0.08500
H2614       H  0.43196102  0.22092368  0.56079319     0.08500
H2615       H  0.45468503  0.22136097  0.57934390     0.08500
H2616       H  0.44967931  0.24136973  0.59059976     0.05200
C2617       C  0.43180410  0.20278787  0.90409342    -0.20600
C2618       C  0.41970217  0.20095324  0.93625404    -0.07100
C2619       C  0.40921496  0.21206176  0.93664408     0.13700
C2620       C  0.41022793  0.22360013  0.90423598    -0.20600
C2621       C  0.42135613  0.22448382  0.87130697    -0.07100
C2622       C  0.43277523  0.21435870  0.87162669     0.13700
C2623       C  0.44528414  0.21484047  0.83741330    -0.24000
H2624       H  0.44006578  0.19456489  0.90374353     0.15000
H2625       H  0.40170793  0.23157285  0.90420098     0.15000
C2626       C  0.39643684  0.21161445  0.97038730    -0.23900
H2627       H  0.45288437  0.20578530  0.84263014     0.05200
H2628       H  0.45738200  0.23064009  0.83146784     0.08500
H2629       H  0.43533314  0.20847738  0.81165595     0.08500
H2630       H  0.40598008  0.21693221  0.99685111     0.08500
H2631       H  0.38349506  0.19604988  0.97476175     0.08500
H2632       H  0.38985020  0.22161727  0.96565599     0.05200
C2633       C  0.44104797  0.09419645  0.53811127    -0.20600
C2634       C  0.46236706  0.10452376  0.54158712    -0.07100
C2635       C  0.47318805  0.12591251  0.53891082     0.13700
C2636       C  0.46232182  0.13632987  0.53437346    -0.20600
C2637       C  0.44093491  0.12600285  0.53254806    -0.07100
C2638       C  0.43019501  0.10458152  0.53363835     0.13700
C2639       C  0.40735383  0.09244331  0.52891618    -0.24000
H2640       H  0.43273447  0.07781520  0.53941873     0.15000
H2641       H  0.47059008  0.15270080  0.03281844     0.15000
C2642       C  0.49614781  0.13787660  0.03978716    -0.23900
H2643       H  0.40176305  0.07594199  0.52789395     0.05200
H2644       H  0.40280211  0.09673983  0.50151850     0.08500
H2645       H  0.39975309  0.09515264  0.55364243     0.08500
H2646       H  0.50241019  0.13250527  0.01664991     0.08500
H2647       H  0.50187949  0.13619669  0.56821671     0.08500
H2648       H  0.50199280  0.15426981  0.03500446     0.05200
C2649       C  0.44808312  0.01207281  0.64475087    -0.20600
C2650       C  0.44974891  0.01359351  0.60432529    -0.07100
C2651       C  0.43998912  0.99562514  0.58215823     0.13700
C2652       C  0.43021038  0.97678896  0.60108134    -0.20600
C2653       C  0.43005164  0.97526434  0.64155357    -0.07100
C2654       C  0.43849163  0.99324383  0.66366622     0.13700
C2655       C  0.43766965  0.99290372  0.70716940    -0.24000
H2656       H  0.45514258  0.02574279  0.66192201     0.15000
H2657       H  0.42343660  0.96310589  0.58394402     0.15000
C2658       C  0.43987592  0.99597709  0.53862644    -0.23900
H2659       H  0.44375078  0.00831041  0.71931568     0.05200
H2660       H  0.44704569  0.98667708  0.71909305     0.08500
H2661       H  0.42162958  0.98359898  0.71692360     0.08500
H2662       H  0.45557591  0.00199298  0.52741549     0.08500
H2663       H  0.43348322  0.00547662  0.52824816     0.08500
H2664       H  0.43040003  0.98060141  0.52637696     0.05200
C2665       C  0.55090644  0.99322550  0.91420158    -0.20600
C2666       C  0.54324792  0.97607040  0.89052193    -0.07100
C2667       C  0.54734493  0.97875766  0.85031200     0.13700
C2668       C  0.55788386  0.99842412  0.83494653    -0.20600
C2669       C  0.56446666  0.01552444  0.85840211    -0.07100
C2670       C  0.56141134  0.01286456  0.89884046     0.13700
C2671       C  0.56820562  0.03046277  0.92608620    -0.24000
H2672       H  0.54807296  0.99128930  0.94499636     0.15000
H2673       H  0.56039129  0.00044304  0.80406068     0.15000
C2674       C  0.54013109  0.96117722  0.82291982    -0.23900
H2675       H  0.56428564  0.02541922  0.95654067     0.05200
H2676       H  0.56059646  0.03926769  0.91849853     0.08500
H2677       H  0.58501071  0.04032246  0.92454194     0.08500
H2678       H  0.52322863  0.95207466  0.82327953     0.08500
H2679       H  0.54677424  0.95160777  0.83134175     0.08500
H2680       H  0.54485273  0.96625680  0.79270738     0.05200
C2681       C  0.55262828  0.09245256  0.91727329    -0.20600
C2682       C  0.54475729  0.07544974  0.89318819    -0.07100
C2683       C  0.52528865  0.05865981  0.90143580     0.13700
C2684       C  0.51451153  0.05928771  0.93368366    -0.20600
C2685       C  0.52252965  0.07606294  0.95838255    -0.07100
C2686       C  0.54182416  0.09304001  0.94970649     0.13700
C2687       C  0.55137279  0.11177474  0.97439509    -0.24000
H2688       H  0.56749718  0.10529970  0.91097482     0.15000
H2689       H  0.49980222  0.04624616  0.94010936     0.15000
C2690       C  0.51589875  0.03959775  0.87755378    -0.23900
H2691       H  0.56620248  0.12362260  0.96254215     0.05200
H2692       H  0.55428790  0.10801620  0.00387673     0.08500
H2693       H  0.54112296  0.11827596  0.97582033     0.08500
H2694       H  0.52612006  0.03303548  0.87728481     0.08500
H2695       H  0.51318543  0.04299608  0.84763997     0.08500
H2696       H  0.50096706  0.02787802  0.88926646     0.05200
C2697       C  0.53588646  0.09101217  0.67406338    -0.20600
C2698       C  0.53310953  0.07818707  0.64280786    -0.07100
C2699       C  0.54311189  0.06661678  0.64343264     0.13700
C2700       C  0.55423282  0.06712382  0.67626387    -0.20600
C2701       C  0.55597520  0.07901322  0.70832088    -0.07100
C2702       C  0.54717218  0.09160055  0.70679721     0.13700
C2703       C  0.54867279  0.10493706  0.74011496    -0.24000
H2704       H  0.52859326  0.10015432  0.67353948     0.15000
H2705       H  0.56130898  0.05777912  0.67724140     0.15000
C2706       C  0.54201351  0.05335197  0.61026664    -0.23900
H2707       H  0.54033221  0.11322315  0.73423740     0.05200
H2708       H  0.56487789  0.11636154  0.74544588     0.08500
H2709       H  0.54199786  0.09560734  0.76645824     0.08500
H2710       H  0.54780802  0.06256965  0.58354363     0.08500
H2711       H  0.52606903  0.04101092  0.60600308     0.08500
H2712       H  0.55143285  0.04613010  0.61559000     0.05200
C2713       C  0.77064055  0.19768844  0.64297139    -0.20600
C2714       C  0.78084240  0.19612811  0.67570294    -0.07100
C2715       C  0.80247595  0.20740148  0.67669938     0.13700
C2716       C  0.81312064  0.21863729  0.64418985    -0.20600
C2717       C  0.80295480  0.21910265  0.61067059    -0.07100
C2718       C  0.78140129  0.20904152  0.61044513     0.13700
C2719       C  0.76959547  0.20931001  0.57551682    -0.24000
H2720       H  0.75413391  0.18938918  0.64219695     0.15000
H2721       H  0.82964353  0.22667605  0.64451110     0.15000
C2722       C  0.81474972  0.20746597  0.71120695    -0.23900
H2723       H  0.75287449  0.20021353  0.58017678     0.05200
H2724       H  0.77342275  0.20290990  0.55027139     0.08500
H2725       H  0.77336259  0.22506845  0.56905880     0.08500
H2726       H  0.81245741  0.19207856  0.71616116     0.08500
H2727       H  0.81015600  0.21271518  0.73715668     0.08500
H2728       H  0.83135510  0.21777179  0.70699405     0.05200
C2729       C  0.79390425  0.21843616  0.89409283    -0.20600
C2730       C  0.79712429  0.20845575  0.92522535    -0.07100
C2731       C  0.78857876  0.18714775  0.92355106     0.13700
C2732       C  0.77780959  0.17670285  0.89049467    -0.20600
C2733       C  0.77493804  0.18671275  0.85917436    -0.07100
C2734       C  0.78290103  0.20788908  0.86117443     0.13700
C2735       C  0.78058373  0.21967279  0.82837406    -0.24000
H2736       H  0.80034428  0.23469066  0.89516134     0.15000
H2737       H  0.77162486  0.16048790  0.88903122     0.15000
C2738       C  0.79084916  0.17509401  0.95590351    -0.23900
H2739       H  0.78844459  0.23614697  0.83446817     0.05200
H2740       H  0.76420733  0.21456866  0.82365718     0.08500
H2741       H  0.78728381  0.21747642  0.80161504     0.08500
H2742       H  0.78406248  0.17704811  0.98277162     0.08500
H2743       H  0.80720569  0.18006440  0.96053776     0.08500
H2744       H  0.78293871  0.15865751  0.94944388     0.05200
C2745       C  0.65223095  0.12240209  0.78378433    -0.20600
C2746       C  0.64277349  0.10177726  0.79292967    -0.07100
C2747       C  0.65475905  0.09241631  0.79714920     0.13700
C2748       C  0.67587178  0.10388824  0.79124353    -0.20600
C2749       C  0.68539827  0.12447078  0.78099845    -0.07100
C2750       C  0.67334915  0.13391224  0.77773467     0.13700
C2751       C  0.68244601  0.15609287  0.76858576    -0.24000
H2752       H  0.64295248  0.12952410  0.78094438     0.15000
H2753       H  0.68496977  0.09659498  0.79433651     0.15000
C2754       C  0.64554349  0.07054193  0.80904123    -0.23900
H2755       H  0.67075163  0.16085320  0.76856432     0.05200
H2756       H  0.68947654  0.15940947  0.73947687     0.08500
H2757       H  0.69407477  0.16523562  0.79064481     0.08500
H2758       H  0.63492548  0.06060091  0.78637472     0.08500
H2759       H  0.63719883  0.06793719  0.83669878     0.08500
H2760       H  0.65736111  0.06611606  0.81328884     0.05200
C2761       C  0.66671554  0.78363439  0.84482054    -0.20600
C2762       C  0.68278760  0.78673785  0.82028471    -0.07100
C2763       C  0.67812743  0.77933909  0.78188485     0.13700
C2764       C  0.65781524  0.76992686  0.76892151    -0.20600
C2765       C  0.64190880  0.76754420  0.79305845    -0.07100
C2766       C  0.64640599  0.77415652  0.83185726     0.13700
C2767       C  0.63012188  0.77220101  0.85942492    -0.24000
H2768       H  0.67010659  0.78912571  0.87423984     0.15000
H2769       H  0.65437231  0.76475972  0.73929785     0.15000
C2770       C  0.69438057  0.78183985  0.75371109    -0.23900
H2771       H  0.63652866  0.77879447  0.88811294     0.05200
H2772       H  0.61876421  0.75599463  0.86397720     0.08500
H2773       H  0.62244800  0.78027657  0.84767192     0.08500
H2774       H  0.70243155  0.77402830  0.76485415     0.08500
H2775       H  0.70538967  0.79815382  0.74918212     0.08500
H2776       H  0.68787522  0.77521701  0.72508744     0.05200
C2777       C  0.80631751  0.79283539  0.88533824    -0.20600
C2778       C  0.79517060  0.77160073  0.88700130    -0.07100
C2779       C  0.77365918  0.76164098  0.88273617     0.13700
C2780       C  0.76406882  0.77315519  0.87723664    -0.20600
C2781       C  0.77523547  0.79431607  0.87481288    -0.07100
C2782       C  0.79670621  0.80431980  0.87891592     0.13700
C2783       C  0.80963276  0.82703955  0.87728795    -0.24000
H2784       H  0.82274234  0.80053867  0.88857783     0.15000
H2785       H  0.74763508  0.76547524  0.87408886     0.15000
C2786       C  0.76047270  0.73892548  0.88409881    -0.23900
H2787       H  0.82598834  0.83220696  0.88263849     0.05200
H2788       H  0.80451368  0.83392699  0.89962500     0.08500
H2789       H  0.80847185  0.83260737  0.84826107     0.08500
H2790       H  0.76268779  0.73305598  0.91200763     0.08500
H2791       H  0.76436680  0.73206316  0.85974318     0.08500
H2792       H  0.74400767  0.73399631  0.88146053     0.05200
C2793       C  0.78305246  0.66578396  0.92297989    -0.20600
C2794       C  0.78934197  0.68245820  0.94752225    -0.07100
C2795       C  0.78604666  0.67906668  0.98780872     0.13700
C2796       C  0.77696190  0.65920504  0.00227511    -0.20600
C2797       C  0.77108261  0.64258097  0.97778510    -0.07100
C2798       C  0.77405525  0.64595382  0.93744994     0.13700
C2799       C  0.76881153  0.62894889  0.90946067    -0.24000
H2800       H  0.78567722  0.66831621  0.89219529     0.15000
H2801       H  0.77481313  0.65666683  0.03313822     0.15000
C2802       C  0.79284116  0.69622577  0.01610276    -0.23900
H2803       H  0.77303894  0.63453761  0.87935552     0.05200
H2804       H  0.75214811  0.61822060  0.90987803     0.08500
H2805       H  0.77718072  0.62091458  0.91733102     0.08500
H2806       H  0.78472779  0.70472040  0.01018993     0.08500
H2807       H  0.80956742  0.70650640  0.01379046     0.08500
H2808       H  0.78947199  0.69072610  0.04639592     0.05200
C2809       C  0.88315260  0.73100202  0.52785855    -0.20600
C2810       C  0.88849882  0.74529217  0.55740754    -0.07100
C2811       C  0.88278496  0.76035026  0.55380426     0.13700
C2812       C  0.87157289  0.76034055  0.52120729    -0.20600
C2813       C  0.86592290  0.74574675  0.99206331    -0.07100
C2814       C  0.87182871  0.73082171  0.99564794     0.13700
C2815       C  0.86561363  0.71396250  0.96675998    -0.24000
H2816       H  0.88746113  0.71945480  0.53033917     0.15000
H2817       H  0.86697988  0.77167570  0.51870673     0.15000
C2818       C  0.88794854  0.77620598  0.58433362    -0.23900
H2819       H  0.87085010  0.70324433  0.97538329     0.05200
H2820       H  0.87247779  0.72028879  0.93819069     0.08500
H2821       H  0.84873164  0.70514934  0.96436859     0.08500
H2822       H  0.90474890  0.78550923  0.58755211     0.08500
H2823       H  0.88097878  0.76885957  0.61227269     0.08500
H2824       H  0.88210603  0.78657036  0.57679330     0.05200
C2825       C  0.86057049  0.73120631  0.74073990    -0.20600
C2826       C  0.88170234  0.74465988  0.74055988    -0.07100
C2827       C  0.89045281  0.75874659  0.77106174     0.13700
C2828       C  0.87791516  0.75866194  0.80097651    -0.20600
C2829       C  0.85690318  0.74465165  0.80198450    -0.07100
C2830       C  0.84809199  0.73081737  0.77100627     0.13700
C2831       C  0.82570589  0.71526115  0.76961684    -0.24000
H2832       H  0.85374881  0.72045585  0.71734642     0.15000
H2833       H  0.88481231  0.76923769  0.82459882     0.15000
C2834       C  0.91303988  0.77338401  0.77337310    -0.23900
H2835       H  0.82154889  0.70622864  0.74264727     0.05200
H2836       H  0.81645604  0.72286623  0.77082530     0.08500
H2837       H  0.82172646  0.70450616  0.79410282     0.08500
H2838       H  0.91796252  0.78372639  0.74808173     0.08500
H2839       H  0.92149606  0.76495046  0.77417205     0.08500
H2840       H  0.91718681  0.78285007  0.79976853     0.05200
C2841       C  0.89025313  0.66324030  0.66854036    -0.20600
C2842       C  0.90299491  0.67982472  0.69195221    -0.07100
C2843       C  0.90738964  0.67610765  0.72999782     0.13700
C2844       C  0.89758113  0.65619142  0.74435233    -0.20600
C2845       C  0.88364810  0.63985583  0.72181131    -0.07100
C2846       C  0.88046551  0.64336803  0.68289358     0.13700
C2847       C  0.86575319  0.62652895  0.65691474    -0.24000
H2848       H  0.88707242  0.66589773  0.63923338     0.15000
H2849       H  0.90019291  0.65343247  0.77399200     0.15000
C2850       C  0.92165484  0.69292931  0.75641331    -0.23900
H2851       H  0.86477224  0.63218424  0.62782946     0.05200
H2852       H  0.85022829  0.61903723  0.66966544     0.08500
H2853       H  0.87086045  0.61529960  0.65302022     0.08500
H2854       H  0.91555907  0.70321328  0.76231432     0.08500
H2855       H  0.93695401  0.70148775  0.74291546     0.08500
H2856       H  0.92353066  0.68707223  0.78464515     0.05200
C2857       C  0.00686911  0.78789027  0.59116302    -0.20600
C2858       C  0.02030977  0.79166177  0.62213860    -0.07100
C2859       C  0.01222240  0.78548477  0.65982391     0.13700
C2860       C  0.99100659  0.77535085  0.66515231    -0.20600
C2861       C  0.97758163  0.77083108  0.63391365    -0.07100
C2862       C  0.98565532  0.77748192  0.59645188     0.13700
C2863       C  0.97213943  0.77412127  0.56192144    -0.24000
H2864       H  0.01297365  0.79281019  0.56241173     0.15000
H2865       H  0.98483264  0.77043753  0.69386986     0.15000
C2866       C  0.02566172  0.78955978  0.69479341    -0.23900
H2867       H  0.98114221  0.78148775  0.53553193     0.05200
H2868       H  0.96208495  0.78057748  0.56751163     0.08500
H2869       H  0.96275041  0.75771589  0.55581457     0.08500
H2870       H  0.03647768  0.80604175  0.69739118     0.08500
H2871       H  0.03420331  0.78127099  0.69238558     0.08500
H2872       H  0.01666667  0.78445453  0.72189819     0.05200
C2873       C  0.10916888  0.77401228  0.58426652    -0.20600
C2874       C  0.09848974  0.78010286  0.55944593    -0.07100
C2875       C  0.09718699  0.77526837  0.51966687     0.13700
C2876       C  0.10734858  0.76534975  0.50578495    -0.20600
C2877       C  0.11876614  0.76009321  0.53042871    -0.07100
C2878       C  0.11941729  0.76423683  0.57037013     0.13700
C2879       C  0.13195602  0.75966770  0.59828796    -0.24000
H2880       H  0.11020260  0.77765372  0.61469991     0.15000
H2881       H  0.10688857  0.76221313  0.47519182     0.15000
C2882       C  0.08605467  0.78133979  0.49121283    -0.23900
H2883       H  0.13138042  0.76474701  0.62802309     0.05200
H2884       H  0.14816653  0.76759292  0.58905047     0.08500
H2885       H  0.12604876  0.74312361  0.59950682     0.08500
H2886       H  0.09290001  0.79804092  0.49102110     0.08500
H2887       H  0.06969350  0.77407379  0.49913703     0.08500
H2888       H  0.08693241  0.77658255  0.46135337     0.05200
C2889       C  0.23395761  0.35125543  0.56874890    -0.20600
C2890       C  0.23947636  0.35318198  0.52967064    -0.07100
C2891       C  0.23550128  0.33575703  0.50870325     0.13700
C2892       C  0.22536187  0.31677499  0.52690383    -0.20600
C2893       C  0.21837604  0.31458960  0.56514067    -0.07100
C2894       C  0.22316190  0.33221360  0.58666057     0.13700
C2895       C  0.21673428  0.33127296  0.62814901    -0.24000
H2896       H  0.23705178  0.36467332  0.58478751     0.15000
H2897       H  0.22198249  0.30342898  0.51037758     0.15000
C2898       C  0.24184511  0.33701595  0.46713578    -0.23900
H2899       H  0.22275541  0.34659449  0.64068569     0.05200
H2900       H  0.22260918  0.32310205  0.64586511     0.08500
H2901       H  0.19986603  0.32352542  0.63013449     0.08500
H2902       H  0.25846002  0.34769800  0.46437631     0.08500
H2903       H  0.23330113  0.34220678  0.44873824     0.08500
H2904       H  0.23868180  0.32208400  0.45603304     0.05200
C2905       C  0.22696431  0.23244601  0.62613722    -0.20600
C2906       C  0.20570089  0.22188614  0.62134483    -0.07100
C2907       C  0.19504307  0.20050941  0.62448679     0.13700
C2908       C  0.20595476  0.19042227  0.63238779    -0.20600
C2909       C  0.22726245  0.20099119  0.63620535    -0.07100
C2910       C  0.23791018  0.22235190  0.63308714     0.13700
C2911       C  0.26074009  0.23476623  0.63778041    -0.24000
H2912       H  0.23518999  0.24879831  0.62388445     0.15000
H2913       H  0.19779930  0.17407248  0.63475409     0.15000
C2914       C  0.17221838  0.18815445  0.62010789    -0.23900
H2915       H  0.26623407  0.25125266  0.63664218     0.05200
H2916       H  0.26841352  0.23136319  0.61412997     0.08500
H2917       H  0.26531724  0.23140056  0.66611840     0.08500
H2918       H  0.16773378  0.18996175  0.59045847     0.08500
H2919       H  0.16473610  0.19310044  0.64154897     0.08500
H2920       H  0.16649066  0.17177536  0.62484024     0.05200
C2921       C  0.35095773  0.22908545  0.69065226    -0.20600
C2922       C  0.35311290  0.22828255  0.73083789    -0.07100
C2923       C  0.33535874  0.21782243  0.75381708     0.13700
C2924       C  0.31618988  0.20787097  0.73579507    -0.20600
C2925       C  0.31417011  0.20746278  0.69540800    -0.07100
C2926       C  0.33183985  0.21858621  0.67255922     0.13700
C2927       C  0.33090736  0.21935105  0.62913619    -0.24000
H2928       H  0.36445288  0.23717099  0.67290998     0.15000
H2929       H  0.30271178  0.19951973  0.75346222     0.15000
C2930       C  0.33627061  0.21664880  0.79720554    -0.23900
H2931       H  0.34610356  0.22961842  0.61637040     0.05200
H2932       H  0.32047922  0.22497296  0.62035092     0.08500
H2933       H  0.32552750  0.20408056  0.61694203     0.08500
H2934       H  0.34462977  0.23212277  0.80948496     0.08500
H2935       H  0.34392975  0.20800647  0.80557097     0.08500
H2936       H  0.32082440  0.20879351  0.81029905     0.05200
C2937       C  0.25461107  0.13153263  0.98516167    -0.20600
C2938       C  0.24353702  0.11034965  0.98888265    -0.07100
C2939       C  0.23190451  0.10174470  0.52282345     0.13700
C2940       C  0.23300233  0.11454854  0.55293530    -0.20600
C2941       C  0.24577728  0.13559323  0.55053632    -0.07100
C2942       C  0.25606435  0.14423753  0.51555453     0.13700
C2943       C  0.26869482  0.16681919  0.50996516    -0.24000
H2944       H  0.26306182  0.13829700  0.95886713     0.15000
H2945       H  0.22476135  0.10796328  0.57951887     0.15000
C2946       C  0.21876299  0.07922000  0.52824276    -0.23900
H2947       H  0.27438165  0.17086491  0.97988968     0.05200
H2948       H  0.28225637  0.17317910  0.52910830     0.08500
H2949       H  0.25935500  0.17397364  0.51641027     0.08500
H2950       H  0.22840392  0.07202925  0.52894924     0.08500
H2951       H  0.20750277  0.07277027  0.50436767     0.08500
H2952       H  0.21016354  0.07539192  0.55582650     0.05200
C2953       C  0.26396418  0.10936893  0.77451418    -0.20600
C2954       C  0.24817754  0.10307861  0.80159862    -0.07100
C2955       C  0.23239594  0.10762737  0.79472319     0.13700
C2956       C  0.23353469  0.11925172  0.76222518    -0.35000
C2957       C  0.24976695  0.12619890  0.73596932    -0.07100
C2958       C  0.26496048  0.12072250  0.74180146     0.13700
C2959       C  0.28274658  0.12726851  0.71469590    -0.24000
H2960       H  0.27592858  0.10571755  0.77932761     0.15000
H2961       H  0.22177208  0.12320642  0.75760662     0.15000
C2962       C  0.21451331  0.10078764  0.82164580    -0.23900
H2963       H  0.29325358  0.12190127  0.72443063     0.05200
H2964       H  0.29169420  0.14403213  0.71309313     0.08500
H2965       H  0.27713262  0.12087441  0.68555342     0.08500
H2966       H  0.21991876  0.10734933  0.85075870     0.08500
H2967       H  0.20598279  0.08402100  0.82347988     0.08500
H2968       H  0.20369636  0.10567606  0.81145600     0.05200
C2969       C  0.34968922  0.11815169  0.93830263    -0.20600
C2970       C  0.35212059  0.11933308  0.97862031    -0.07100
C2971       C  0.33465973  0.10852801  0.00214263     0.13700
C2972       C  0.31527620  0.09812740  0.98485293    -0.20600
C2973       C  0.31270454  0.09816867  0.94462997    -0.07100
C2974       C  0.33031540  0.10772615  0.92097121     0.13700
C2975       C  0.32904534  0.10711544  0.87749123    -0.24000
H2976       H  0.36302700  0.12601051  0.92009692     0.15000
H2977       H  0.30195465  0.09047723  0.00316286     0.15000
C2978       C  0.33619543  0.10766540  0.04543768    -0.23900
H2979       H  0.34438170  0.11426181  0.86397707     0.05200
H2980       H  0.32144032  0.11548320  0.86706602     0.08500
H2981       H  0.32047190  0.09116816  0.86760867     0.08500
H2982       H  0.34185898  0.12290856  0.05796764     0.08500
H2983       H  0.34666317  0.10191961  0.55316658     0.08500
H2984       H  0.32116352  0.09741133  0.05880881     0.05200
C2985       C  0.21779526  0.88833061  0.83028346    -0.20600
C2986       C  0.20799061  0.89505108  0.80462393    -0.07100
C2987       C  0.20959783  0.89286876  0.76442860     0.13700
C2988       C  0.21975637  0.88284871  0.75131318    -0.20600
C2989       C  0.22853385  0.87505275  0.77706246    -0.07100
C2990       C  0.22817611  0.87852847  0.81715992     0.13700
C2991       C  0.23794944  0.87139356  0.84662096    -0.24000
H2992       H  0.21686227  0.89028014  0.86104501     0.15000
H2993       H  0.22028319  0.88053111  0.72058874     0.15000
C2994       C  0.19991027  0.90014568  0.73507389    -0.23900
H2995       H  0.23605819  0.87544603  0.87648494     0.05200
H2996       H  0.25455687  0.87859580  0.84091912     0.08500
H2997       H  0.23085830  0.85468573  0.84542829     0.08500
H2998       H  0.20661138  0.91677334  0.73748399     0.08500
H2999       H  0.18318887  0.89250994  0.73982472     0.08500
H3000       H  0.20247639  0.89683840  0.70507241     0.05200
C3001       C  0.11521385  0.85788406  0.76799247    -0.20600
C3002       C  0.12555400  0.87908942  0.76486202    -0.07100
C3003       C  0.12399191  0.88800355  0.72994776     0.13700
C3004       C  0.11347928  0.87551743  0.69852078    -0.20600
C3005       C  0.10470946  0.85442846  0.70077255    -0.07100
C3006       C  0.10490675  0.84544514  0.73646826     0.13700
C3007       C  0.09429385  0.82280372  0.74175856    -0.24000
H3008       H  0.11586137  0.85092308  0.79491921     0.15000
H3009       H  0.11296226  0.88237039  0.67135030     0.15000
C3010       C  0.13396189  0.91058970  0.72474706    -0.23900
H3011       H  0.09468407  0.81853142  0.77231572     0.05200
H3012       H  0.10191837  0.81633964  0.72428753     0.08500
H3013       H  0.07805564  0.81595670  0.73297596     0.08500
H3014       H  0.15074271  0.91762752  0.72789544     0.08500
H3015       H  0.12793214  0.91693276  0.74644675     0.08500
H3016       H  0.13090870  0.91472848  0.69569521     0.05200
C3017       C  0.14735081  0.88363103  0.98091526    -0.20600
C3018       C  0.13686607  0.88749907  0.95169307    -0.07100
C3019       C  0.11587740  0.88081469  0.95658155     0.13700
C3020       C  0.10573732  0.86926991  0.98934139    -0.20600
C3021       C  0.11599138  0.86423950  0.51735385    -0.07100
C3022       C  0.13733343  0.87225346  0.51371477     0.13700
C3023       C  0.14989515  0.86896564  0.54379855    -0.24000
H3024       H  0.16352765  0.88916200  0.97766034     0.15000
H3025       H  0.08951414  0.86351030  0.99231190     0.15000
C3026       C  0.10380748  0.88499568  0.92690500    -0.23900
H3027       H  0.16643046  0.87748556  0.53697825     0.05200
H3028       H  0.14538622  0.85272730  0.54531413     0.08500
H3029       H  0.14783186  0.87426087  0.57235273     0.08500
H3030       H  0.10424099  0.87831608  0.89875379     0.08500
H3031       H  0.11024393  0.90156472  0.92365864     0.08500
H3032       H  0.08756792  0.87837740  0.93536845     0.05200
C3033       C  0.18920406  0.98418955  0.87158729    -0.20600
C3034       C  0.20008824  0.97376429  0.86929032    -0.07100
C3035       C  0.22150335  0.98460866  0.87423298     0.13700
C3036       C  0.23134211  0.00542670  0.88194342    -0.20600
C3037       C  0.22047858  0.01587730  0.88498434    -0.07100
C3038       C  0.19902551  0.00502899  0.87953718     0.13700
C3039       C  0.18628707  0.01516333  0.88141637    -0.24000
H3040       H  0.17280925  0.97588998  0.86762497     0.15000
H3041       H  0.24774679  0.01360384  0.88567787     0.15000
C3042       C  0.23426182  0.97457691  0.87013229    -0.23900
H3043       H  0.16993959  0.00440177  0.87546888     0.05200
H3044       H  0.19167211  0.02744127  0.85953253     0.08500
H3045       H  0.18729475  0.02144376  0.91070196     0.08500
H3046       H  0.23150476  0.96721197  0.84144394     0.08500
H3047       H  0.23041796  0.96314579  0.89328709     0.08500
H3048       H  0.25081675  0.98562857  0.87248524     0.05200
C3049       C  0.89788788  0.20791154  0.97732173    -0.20600
C3050       C  0.89849297  0.20657564  0.93690084    -0.07100
C3051       C  0.88935074  0.21528609  0.91382200     0.13700
C3052       C  0.87946236  0.22446416  0.93173905    -0.20600
C3053       C  0.87781665  0.22477590  0.97207232    -0.07100
C3054       C  0.88750478  0.21666089  0.99524958     0.13700
C3055       C  0.88679634  0.21678177  0.53877392    -0.24000
H3056       H  0.90490016  0.20133878  0.99516106     0.15000
H3057       H  0.87215913  0.23070409  0.91380789     0.15000
C3058       C  0.88951451  0.21480643  0.87029132    -0.23900
H3059       H  0.89593634  0.21056055  0.55195750     0.05200
H3060       H  0.87087869  0.20734167  0.54901406     0.08500
H3061       H  0.89324454  0.23271182  0.04901257     0.08500
H3062       H  0.88058190  0.19897055  0.85998726     0.08500
H3063       H  0.90544855  0.22184388  0.85970273     0.08500
H3064       H  0.88252042  0.22326456  0.85730310     0.05200
C3065       C  0.11229930  0.32932159  0.83200901    -0.20600
C3066       C  0.10417829  0.31255722  0.80723380    -0.07100
C3067       C  0.10502069  0.31584993  0.76680586     0.13700
C3068       C  0.11546430  0.33570786  0.75242595    -0.20600
C3069       C  0.12452406  0.35245725  0.77714075    -0.07100
C3070       C  0.12210779  0.34921430  0.81757411     0.13700
C3071       C  0.13039013  0.36649341  0.84585133    -0.24000
H3072       H  0.11132771  0.32684717  0.86295841     0.15000
H3073       H  0.11694429  0.33816520  0.72147239     0.15000
C3074       C  0.09568941  0.29864647  0.73836030    -0.23900
H3075       H  0.12714558  0.36106728  0.87620852     0.05200
H3076       H  0.12315844  0.37588322  0.84063948     0.08500
H3077       H  0.14718031  0.37590994  0.84268482     0.08500
H3078       H  0.07900121  0.28950717  0.74330086     0.08500
H3079       H  0.10276171  0.28898392  0.74155121     0.08500
H3080       H  0.09799381  0.30413991  0.70803764     0.05200
C3081       C  0.11256387  0.25653005  0.98353007    -0.20600
C3082       C  0.11301343  0.24700212  0.94940327    -0.07100
C3083       C  0.12492047  0.23741178  0.94797152     0.13700
C3084       C  0.13648435  0.23816801  0.98045226    -0.20600
C3085       C  0.13669159  0.24843368  0.51423556    -0.07100
C3086       C  0.12422282  0.25749397  0.51583715     0.13700
C3087       C  0.12333684  0.26874413  0.55081243    -0.24000
H3088       H  0.10337813  0.26379373  0.98457748     0.15000
H3089       H  0.14590842  0.23118276  0.97895121     0.15000
C3090       C  0.12639044  0.22723434  0.91185588    -0.23900
H3091       H  0.11257013  0.27452467  0.54672061     0.05200
H3092       H  0.13860250  0.28201046  0.55650687     0.08500
H3093       H  0.11806206  0.25850481  0.57626944     0.08500
H3094       H  0.13213582  0.23824353  0.88757315     0.08500
H3095       H  0.11117928  0.21431456  0.90442748     0.08500
H3096       H  0.13699269  0.22123339  0.91556437     0.05200
C3097       C  0.12596057  0.23554833  0.70435649    -0.20600
C3098       C  0.14693579  0.24958705  0.70430806    -0.07100
C3099       C  0.15561192  0.26251095  0.73652402     0.13700
C3100       C  0.14288501  0.26167044  0.76665397    -0.20600
C3101       C  0.12167664  0.24859268  0.76543342    -0.07100
C3102       C  0.11316922  0.23498879  0.73412101     0.13700
C3103       C  0.09066635  0.22008069  0.73113536    -0.24000
H3104       H  0.11928026  0.22547093  0.67995390     0.15000
H3105       H  0.14957680  0.27190464  0.79083969     0.15000
C3106       C  0.17815089  0.27735724  0.73955757    -0.23900
H3107       H  0.08696283  0.21031668  0.70524219     0.05200
H3108       H  0.08201003  0.22826729  0.72871323     0.08500
H3109       H  0.08555572  0.21005237  0.75690209     0.08500
H3110       H  0.18283525  0.28915486  0.71685586     0.08500
H3111       H  0.18689006  0.26928634  0.73658700     0.08500
H3112       H  0.18223862  0.28523617  0.76783485     0.05200
C3113       C  0.99252448  0.19083522  0.87252434    -0.20600
C3114       C  0.98213693  0.20165421  0.87742192    -0.07100
C3115       C  0.99340257  0.22308720  0.87657483     0.13700
C3116       C  0.01456281  0.23296937  0.87093383    -0.20600
C3117       C  0.02492270  0.22218022  0.86575090    -0.07100
C3118       C  0.01371851  0.20076998  0.86654345     0.13700
C3119       C  0.02395071  0.18824243  0.86226229    -0.24000
H3120       H  0.98397770  0.17445089  0.87314650     0.15000
H3121       H  0.02310280  0.24935547  0.87034601     0.15000
C3122       C  0.98349542  0.23582336  0.88253283    -0.23900
H3123       H  0.01295797  0.17182142  0.86542673     0.05200
H3124       H  0.03586215  0.19251885  0.88481905     0.08500
H3125       H  0.03093400  0.19063778  0.83320791     0.08500
H3126       H  0.97534003  0.23192692  0.91059722     0.08500
H3127       H  0.97267673  0.23329348  0.85863853     0.08500
H3128       H  0.99485668  0.25223587  0.88294375     0.05200
C3129       C  0.88244636  0.11194070  0.74551375    -0.20600
C3130       C  0.87203201  0.11948560  0.72355998    -0.07100
C3131       C  0.87455626  0.13869452  0.73300139     0.13700
C3132       C  0.88652230  0.14915827  0.76500248    -0.20600
C3133       C  0.89578613  0.14096848  0.78854838    -0.07100
C3134       C  0.89418845  0.12230549  0.77790415     0.13700
C3135       C  0.90435623  0.11286319  0.80064399    -0.24000
H3136       H  0.88085794  0.09743912  0.73804720     0.15000
H3137       H  0.88791365  0.16356674  0.77258923     0.15000
C3138       C  0.86412597  0.14809418  0.71086776    -0.23900
H3139       H  0.90198950  0.09866041  0.78716959     0.05200
H3140       H  0.89789411  0.10901654  0.83020635     0.08500
H3141       H  0.92103692  0.12348913  0.80208278     0.08500
H3142       H  0.84732733  0.13819060  0.71258909     0.08500
H3143       H  0.86911838  0.15042265  0.68026878     0.08500
H3144       H  0.86786051  0.16307608  0.72267682     0.05200
C3145       C  0.89417866  0.12368706  0.50704097    -0.20600
C3146       C  0.88439179  0.12763600  0.97638753    -0.07100
C3147       C  0.86298082  0.11968501  0.97820298     0.13700
C3148       C  0.85233225  0.10898197  0.51122210    -0.20600
C3149       C  0.86225339  0.10587637  0.54258470    -0.07100
C3150       C  0.88341794  0.11288005  0.53999394     0.13700
C3151       C  0.89503475  0.10981707  0.57227658    -0.24000
H3152       H  0.91048267  0.12957055  0.50570338     0.15000
H3153       H  0.83607731  0.10337612  0.51291067     0.15000
C3154       C  0.85115326  0.12276882  0.94629028    -0.23900
H3155       H  0.91151808  0.11672381  0.56553751     0.05200
H3156       H  0.88898665  0.09340479  0.57712412     0.08500
H3157       H  0.89363680  0.11692492  0.59913513     0.08500
H3158       H  0.85276046  0.11605206  0.91908451     0.08500
H3159       H  0.85676952  0.13915683  0.94215451     0.08500
H3160       H  0.83461662  0.11540352  0.95291266     0.05200
C3161       C  0.78313489  0.10948751  0.66011163    -0.20600
C3162       C  0.78576114  0.09560669  0.68273522    -0.07100
C3163       C  0.77696765  0.09071487  0.72015598     0.13700
C3164       C  0.76696167  0.10072767  0.73445438    -0.20600
C3165       C  0.76531350  0.11532656  0.71237959    -0.07100
C3166       C  0.77324429  0.11951027  0.67440945     0.13700
C3167       C  0.77260554  0.13549733  0.64954708    -0.24000
H3168       H  0.78976042  0.11333769  0.63147834     0.15000
H3169       H  0.76079169  0.09749121  0.76348379     0.15000
C3170       C  0.77818765  0.07523112  0.74550055    -0.23900
H3171       H  0.78044396  0.13743410  0.62148850     0.05200
H3172       H  0.78032587  0.15030397  0.66459941     0.08500
H3173       H  0.75655777  0.13116988  0.64317207     0.08500
H3174       H  0.76944621  0.07257070  0.77268104     0.08500
H3175       H  0.77171960  0.06058688  0.73002622     0.08500
H3176       H  0.79426451  0.08051893  0.75362327     0.05200
C3177       C  0.76794055  0.88812773  0.99445303    -0.20600
C3178       C  0.75465204  0.87827374  0.52539813    -0.07100
C3179       C  0.74220119  0.85691379  0.52440484     0.13700
C3180       C  0.74241077  0.84635482  0.99150620    -0.20600
C3181       C  0.75418534  0.85644750  0.95901532    -0.07100
C3182       C  0.76761994  0.87763177  0.96098616     0.13700
C3183       C  0.78081820  0.88961896  0.92741571    -0.24000
H3184       H  0.77768792  0.90440693  0.99528459     0.15000
H3185       H  0.73249079  0.83010133  0.99050621     0.15000
C3186       C  0.72819997  0.84497192  0.55715067    -0.23900
H3187       H  0.79005001  0.90599641  0.93411118     0.05200
H3188       H  0.77111166  0.88804585  0.90206235     0.08500
H3189       H  0.79154917  0.88419591  0.92006163     0.08500
H3190       H  0.71587571  0.84873832  0.56017309     0.08500
H3191       H  0.73700526  0.84827767  0.58441549     0.08500
H3192       H  0.72072195  0.82841523  0.55213783     0.05200
C3193       C  0.74383966  0.88816581  0.73698793    -0.20600
C3194       C  0.75244294  0.88661129  0.70240811    -0.07100
C3195       C  0.76064577  0.87355813  0.70038552     0.13700
C3196       C  0.75979478  0.86219800  0.73308522    -0.20600
C3197       C  0.75097036  0.86355851  0.76780438    -0.07100
C3198       C  0.74308358  0.87699069  0.76978206     0.13700
C3199       C  0.73346101  0.87956580  0.80581625    -0.24000
H3200       H  0.73747911  0.89812970  0.73821508     0.15000
H3201       H  0.76573089  0.85190359  0.73121233     0.15000
C3202       C  0.76938669  0.87077747  0.66339195    -0.23900
H3203       H  0.72838126  0.89083615  0.80176980     0.05200
H3204       H  0.74468484  0.88498846  0.82984661     0.08500
H3205       H  0.71980369  0.86499838  0.81373289     0.08500
H3206       H  0.78301284  0.88522832  0.65489753     0.08500
H3207       H  0.75777390  0.86580048  0.64012327     0.08500
H3208       H  0.77413231  0.85920500  0.66644661     0.05200
C3209       C  0.78475707  0.98481652  0.65503058    -0.20600
C3210       C  0.78035766  0.97691754  0.61738547    -0.07100
C3211       C  0.78690014  0.99056453  0.58573670     0.13700
C3212       C  0.79733277  0.01151935  0.59267361    -0.20600
C3213       C  0.80161085  0.01938402  0.63030469    -0.07100
C3214       C  0.79538982  0.00577773  0.66192466     0.13700
C3215       C  0.79926666  0.01312133  0.70307479    -0.24000
H3216       H  0.77981816  0.97449072  0.67938087     0.15000
H3217       H  0.80211417  0.02188648  0.56838720     0.15000
C3218       C  0.78242704  0.98332006  0.54455062    -0.23900
H3219       H  0.79258187  0.00038799  0.72405167     0.05200
H3220       H  0.79233005  0.02273892  0.70844804     0.08500
H3221       H  0.81591876  0.02191806  0.70864490     0.08500
H3222       H  0.76571437  0.97374550  0.54031548     0.08500
H3223       H  0.79009467  0.97454346  0.53760694     0.08500
H3224       H  0.78803883  0.99610003  0.52372874     0.05200
C3225       C  0.68590736  0.90042439  0.52555583    -0.20600
C3226       C  0.68862554  0.90000771  0.56567214    -0.07100
C3227       C  0.67122453  0.89205227  0.58988519     0.13700
C3228       C  0.65174828  0.88362273  0.57316514    -0.20600
C3229       C  0.64899295  0.88232282  0.53294000    -0.07100
C3230       C  0.66639563  0.89159401  0.50884143     0.13700
C3231       C  0.66470273  0.89213522  0.96551769    -0.24000
H3232       H  0.69912471  0.90687033  0.50683701     0.15000
H3233       H  0.63848964  0.87684954  0.59178795     0.15000
C3234       C  0.67276150  0.89170564  0.63327600    -0.23900
H3235       H  0.67985016  0.90132640  0.95171226     0.05200
H3236       H  0.65518544  0.89894410  0.95758467     0.08500
H3237       H  0.65789395  0.87663943  0.95355425     0.08500
H3238       H  0.68279391  0.90727640  0.64416802     0.08500
H3239       H  0.67888713  0.88174465  0.64206403     0.08500
H3240       H  0.65766042  0.88574625  0.64734167     0.05200
loop_ 
_geom_bond_atom_site_label_1 
_geom_bond_atom_site_label_2 
_geom_bond_distance 
_geom_bond_site_symmetry_2 
_ccdc_geom_bond_type 
In1           O3   2.242       .  S
In1           O4   2.229       .  S
In1          O12   2.259       .  S
In1           O6   2.262       .  S
In1           O8   2.258       .  S
In1           O9   2.246       .  S
In1          O10   2.229       .  S
In1          O13   2.253       .  S
C2            O8   1.265       .  A
C2           O10   1.258       .  A
C2         C1558   1.487       .  S
O3           C11   1.262       .  A
O4           C11   1.261       .  A
C5           O12   1.259       .  A
C5            O6   1.259       .  A
C5         C1590   1.492       .  S
C7            O9   1.258       .  A
C7           O13   1.260       .  A
C7         C1606   1.490       .  S
C11        C1574   1.475       .  S
In14         O16   2.245       .  S
In14         O17   2.235       .  S
In14         O25   2.251       .  S
In14         O19   2.259       .  S
In14         O21   2.255       .  S
In14         O22   2.243       .  S
In14         O23   2.235       .  S
In14         O26   2.255       .  S
C15          O21   1.264       .  A
C15          O23   1.257       .  A
C15        C1510   1.488       .  S
O16          C24   1.261       .  A
O17          C24   1.262       .  A
C18          O25   1.260       .  A
C18          O19   1.261       .  A
C18        C1593   1.490       .  S
C20          O22   1.261       .  A
C20          O26   1.259       .  A
C20        C1542   1.491       .  S
C24        C1529   1.485       .  S
In27         O29   2.236       .  S
In27         O30   2.248       .  S
In27         O38   2.242       .  S
In27         O32   2.249       .  S
In27         O34   2.240       .  S
In27         O35   2.237       .  S
In27         O36   2.229       .  S
In27         O39   2.241       .  S
C28          O34   1.262       .  A
C28          O36   1.260       .  A
C28        C1481   1.485       .  S
O29          C37   1.260       .  A
O30          C37   1.263       .  A
C31          O38   1.260       .  A
C31          O32   1.260       .  A
C31        C1497   1.484       .  S
C33          O35   1.262       .  A
C33          O39   1.259       .  A
C33        C1462   1.481       .  S
C37        C1446   1.485       .  S
In40         O42   2.248       .  S
In40         O43   2.230       .  S
In40         O51   2.236       .  S
In40         O45   2.264       .  S
In40         O47   2.255       .  S
In40         O48   2.230       .  S
In40         O49   2.228       .  S
In40         O52   2.247       .  S
C41          O47   1.265       .  A
C41          O49   1.258       .  A
C41        C1526   1.488       .  S
O42          C50   1.262       .  A
O43          C50   1.260       .  A
C44          O51   1.257       .  A
C44          O45   1.262       .  A
C44        C1494   1.487       .  S
C46          O48   1.261       .  A
C46          O52   1.261       .  A
C46        C1513   1.488       .  S
C50        C1430   1.487       .  S
In53         O55   2.251       .  S
In53         O56   2.235       .  S
In53         O64   2.243       .  S
In53         O58   2.260       .  S
In53         O60   2.248       .  S
In53         O61   2.226       .  S
In53         O62   2.234       .  S
In53         O65   2.250       .  S
C54          O60   1.262       .  A
C54          O62   1.260       .  A
C54        C1382   1.487       .  S
O55          C63   1.262       .  A
O56          C63   1.261       .  A
C57          O64   1.258       .  A
C57          O58   1.261       .  A
C57        C1414   1.484       .  S
C59          O61   1.259       .  A
C59          O65   1.260       .  A
C59        C1398   1.481       .  S
C63        C1366   1.485       .  S
In66         O68   2.253       .  S
In66         O69   2.242       .  S
In66         O77   2.253       .  S
In66         O71   2.257       .  S
In66         O73   2.257       .  S
In66         O74   2.240       .  S
In66         O75   2.232       .  S
In66         O78   2.243       .  S
C67          O73   1.262       .  A
C67          O75   1.259       .  A
C67        C1318   1.488       .  S
O68          C76   1.264       .  A
O69          C76   1.261       .  A
C70          O77   1.259       .  A
C70          O71   1.258       .  A
C70        C1417   1.491       .  S
C72          O74   1.261       .  A
C72          O78   1.259       .  A
C72        C1334   1.487       .  S
C76        C1353   1.492       .  S
In79         O81   2.251       .  S
In79         O82   2.236       .  S
In79         O90   2.235       .  S
In79         O84   2.257       .  S
In79         O86   2.252       .  S
In79         O87   2.243       .  S
In79         O88   2.227       .  S
In79         O91   2.237       .  S
C80          O86   1.265       .  A
C80          O88   1.259       .  A
C80        C1337   1.486       .  S
O81          C89   1.261       .  A
O82          C89   1.260       .  A
C83          O90   1.257       .  A
C83          O84   1.262       .  A
C83        C1289   1.483       .  S
C85          O87   1.262       .  A
C85          O91   1.262       .  A
C85        C1305   1.486       .  S
C89        C1321   1.480       .  S
In92         O94   2.243       .  S
In92         O95   2.232       .  S
In92        O103   2.240       .  S
In92         O97   2.257       .  S
In92         O99   2.268       .  S
In92        O100   2.238       .  S
In92        O101   2.230       .  S
In92        O104   2.250       .  S
C93          O99   1.263       .  A
C93         O101   1.256       .  A
C93        C1465   1.491       .  S
O94         C102   1.262       .  A
O95         C102   1.259       .  A
C96         O103   1.260       .  A
C96          O97   1.260       .  A
C96        C1286   1.487       .  S
C98         O100   1.259       .  A
C98         O104   1.263       .  A
C98        C1273   1.488       .  S
C102       C1478   1.483       .  S
In105       O107   2.248       .  S
In105       O108   2.227       .  S
In105       O116   2.229       .  S
In105       O110   2.252       .  S
In105       O112   2.260       .  S
In105       O113   2.241       .  S
In105       O114   2.212       .  S
In105       O117   2.256       .  S
C106        O112   1.264       .  A
C106        O114   1.257       .  A
C106       C1401   1.485       .  S
O107        C115   1.262       .  A
O108        C115   1.261       .  A
C109        O116   1.258       .  A
C109        O110   1.263       .  A
C109       C1238   1.485       .  S
C111        O113   1.260       .  A
C111        O117   1.260       .  A
C111       C1254   1.488       .  S
C115       C1385   1.481       .  S
In118       O120   2.252       .  S
In118       O121   2.230       .  S
In118       O129   2.239       .  S
In118       O123   2.256       .  S
In118       O125   2.256       .  S
In118       O126   2.244       .  S
In118       O127   2.234       .  S
In118       O130   2.255       .  S
C119        O125   1.262       .  A
C119        O127   1.259       .  A
C119       C1206   1.488       .  S
O120        C128   1.262       .  A
O121        C128   1.262       .  A
C122        O129   1.258       .  A
C122        O123   1.261       .  A
C122       C1241   1.483       .  S
C124        O126   1.260       .  A
C124        O130   1.259       .  A
C124       C1222   1.490       .  S
C128       C1190   1.489       .  S
In131       O133   2.238       .  S
In131       O134   2.240       .  S
In131       O142   2.232       .  S
In131       O136   2.261       .  S
In131       O138   2.275       .  S
In131       O139   2.236       .  S
In131       O140   2.211       .  S
In131       O143   2.248       .  S
C132        O138   1.265       .  A
C132        O140   1.256       .  A
C132       C1193   1.488       .  S
O133        C141   1.260       .  A
O134        C141   1.262       .  A
C135        O142   1.257       .  A
C135        O136   1.263       .  A
C135       C1158   1.488       .  S
C137        O139   1.260       .  A
C137        O143   1.263       .  A
C137       C1209   1.490       .  S
C141       C1174   1.485       .  S
In144       O146   2.243       .  S
In144       O147   2.255       .  S
In144       O155   2.237       .  S
In144       O149   2.247       .  S
In144       O151   2.257       .  S
In144       O152   2.240       .  S
In144       O153   2.214       .  S
In144       O156   2.241       .  S
C145        O151   1.264       .  A
C145        O153   1.257       .  A
C145       C1577   1.486       .  S
O146        C154   1.260       .  A
O147        C154   1.263       .  A
C148        O155   1.260       .  A
C148        O149   1.259       .  A
C148       C1161   1.483       .  S
C150        O152   1.263       .  A
C150        O156   1.260       .  A
C150       C1561   1.487       .  S
C154       C1142   1.492       .  S
In157       O159   2.240       .  S
In157       O160   2.240       .  S
In157       O168   2.245       .  S
In157       O162   2.250       .  S
In157       O164   2.258       .  S
In157       O165   2.253       .  S
In157       O166   2.216       .  S
In157       O169   2.236       .  S
C158        O164   1.265       .  A
C158        O166   1.258       .  A
C158       C1094   1.487       .  S
O159        C167   1.259       .  A
O160        C167   1.262       .  A
C161        O168   1.259       .  A
C161        O162   1.259       .  A
C161       C1129   1.487       .  S
C163        O165   1.263       .  A
C163        O169   1.260       .  A
C163       C1545   1.482       .  S
C167       C1113   1.482       .  S
In170       O172   2.241       .  S
In170       O173   2.234       .  S
In170       O181   2.235       .  S
In170       O175   2.242       .  S
In170       O177   2.254       .  S
In170       O178   2.240       .  S
In170       O179   2.213       .  S
In170       O182   2.228       .  S
C171        O177   1.265       .  A
C171        O179   1.258       .  A
C171       C1062   1.483       .  S
O172        C180   1.259       .  A
O173        C180   1.262       .  A
C174        O181   1.259       .  A
C174        O175   1.261       .  A
C174       C1126   1.476       .  S
C176        O178   1.265       .  A
C176        O182   1.261       .  A
C176       C1049   1.484       .  S
C180       C1081   1.479       .  S
In183       O185   2.251       .  S
In183       O186   2.243       .  S
In183       O194   2.251       .  S
In183       O188   2.252       .  S
In183       O190   2.251       .  S
In183       O191   2.239       .  S
In183       O192   2.224       .  S
In183       O195   2.242       .  S
C184        O190   1.264       .  A
C184        O192   1.258       .  A
C184       C1078   1.487       .  S
O185        C193   1.262       .  A
O186        C193   1.260       .  A
C187        O194   1.259       .  A
C187        O188   1.259       .  A
C187       C1014   1.486       .  S
C189        O191   1.261   1_556  A
C189        O195   1.259   1_556  A
C189       C2685   1.487       .  S
C193       C1030   1.490       .  S
In196       O199   2.253       .  S
In196       O207   2.242       .  S
In196       O201   2.266       .  S
In196       O204   2.251       .  S
In196       O208   2.250       .  S
In196      O1818   2.252   1_554  S
In196      O1823   2.256   1_554  S
In196      O1825   2.223   1_554  S
C197        O203   1.265       .  A
C197        O205   1.259       .  A
C197        C998   1.489       .  S
O198      In1816   2.252       .  S
O198        C206   1.260       .  A
O199       C1826   1.261   1_554  A
C200        O207   1.257       .  A
C200        O201   1.261       .  A
C200       C1017   1.486       .  S
C202        O204   1.261       .  A
C202        O208   1.260       .  A
C202        C982   1.487       .  S
O203      In1816   2.256       .  S
O205      In1816   2.223       .  S
C206       O1819   1.261       .  A
C206       C1350   1.490       .  S
In209       O211   2.245       .  S
In209       O212   2.236       .  S
In209       O220   2.242       .  S
In209       O214   2.259       .  S
In209       O216   2.250       .  S
In209       O217   2.237       .  S
In209       O218   2.232       .  S
In209       O221   2.241       .  S
C210        O216   1.265       .  A
C210        O218   1.259       .  A
C210        C985   1.489       .  S
O211        C219   1.259       .  A
O212        C219   1.260       .  A
C213        O220   1.258       .  A
C213        O214   1.261       .  A
C213        C966   1.491       .  S
C215        O217   1.260       .  A
C215        O221   1.262       .  A
C215       C1302   1.486       .  S
C219       C1001   1.483       .  S
In222       O224   2.229       .  S
In222       O225   2.250       .  S
In222       O233   2.233       .  S
In222       O227   2.270       .  S
In222       O229   2.258       .  S
In222       O230   2.252       .  S
In222       O231   2.224       .  S
In222       O234   2.225       .  S
C223        O229   1.267       .  A
C223        O231   1.259       .  A
C223        C937   1.490       .  S
O224        C232   1.261       .  A
O225        C232   1.262       .  A
C226        O233   1.257       .  A
C226        O227   1.261       .  A
C226        C969   1.483       .  S
C228        O230   1.265       .  A
C228        O234   1.259       .  A
C228        C950   1.477       .  S
C232        C918   1.485       .  S
In235       O237   2.253       .  S
In235       O238   2.267       .  S
In235       O246   2.252       .  S
In235       O240   2.247       .  S
In235       O242   2.237       .  S
In235       O243   2.237       .  S
In235       O244   2.244       .  S
In235       O247   2.249       .  S
C236        O242   1.261       .  A
C236        O244   1.262       .  A
C236        C921   1.487       .  S
O237        C245   1.258       .  A
O238        C245   1.260       .  A
C239        O246   1.259       .  A
C239        O240   1.259       .  A
C239        C886   1.477       .  S
C241        O243   1.263   1_556  A
C241        O247   1.261   1_556  A
C241       C2554   1.487       .  S
C245        C902   1.492       .  S
In248       O251   2.258       .  S
In248       O259   2.239       .  S
In248       O253   2.263       .  S
In248       O256   2.250       .  S
In248       O260   2.251       .  S
In248      O1870   2.244   1_554  S
In248      O1875   2.252   1_554  S
In248      O1877   2.228   1_554  S
C249        O255   1.264       .  A
C249        O257   1.262       .  A
C249        C870   1.487       .  S
O250      In1868   2.244       .  S
O250        C258   1.259       .  A
O251       C1878   1.262   1_554  A
C252        O259   1.258       .  A
C252        O253   1.261       .  A
C252        C889   1.486       .  S
C254        O256   1.261       .  A
C254        O260   1.260       .  A
C254        C854   1.486       .  S
O255      In1868   2.252       .  S
O257      In1868   2.228       .  S
C258       O1871   1.262       .  A
C258       C1177   1.486       .  S
In261       O263   2.264       .  S
In261       O264   2.233       .  S
In261       O272   2.252       .  S
In261       O266   2.255       .  S
In261       O268   2.252       .  S
In261       O269   2.255       .  S
In261       O270   2.235       .  S
In261       O273   2.248       .  S
C262        O268   1.264       .  A
C262        O270   1.260       .  A
C262        C857   1.485       .  S
O263        C271   1.264       .  A
O264        C271   1.259       .  A
C265        O272   1.258       .  A
C265        O266   1.259       .  A
C265        C838   1.483       .  S
C267        O269   1.260       .  A
C267        O273   1.257       .  A
C267       C1225   1.483       .  S
C271        C873   1.493       .  S
In274       O276   2.248       .  S
In274       O277   2.222       .  S
In274       O285   2.233       .  S
In274       O279   2.259       .  S
In274       O281   2.261       .  S
In274       O282   2.246       .  S
In274       O283   2.223       .  S
In274       O286   2.236       .  S
C275        O281   1.265       .  A
C275        O283   1.258       .  A
C275        C806   1.487       .  S
O276        C284   1.264       .  A
O277        C284   1.260       .  A
C278        O285   1.256       .  A
C278        O279   1.261       .  A
C278        C841   1.484       .  S
C280        O282   1.259       .  A
C280        O286   1.260       .  A
C280        C822   1.477       .  S
C284        C790   1.482       .  S
In287       O290   2.254       .  S
In287       O298   2.239       .  S
In287       O292   2.251   1_554  S
In287       O295   2.227       .  S
In287       O299   2.254       .  S
In287      O1909   2.234   1_554  S
In287      O1914   2.251   1_554  S
In287      O1916   2.222   1_554  S
C288        O294   1.265       .  A
C288        O296   1.259       .  A
C288       C1110   1.487       .  S
O289      In1907   2.234       .  S
O289        C297   1.260       .  A
O290       C1917   1.260   1_554  A
C291        O298   1.259       .  A
C291        O292   1.259   1_554  A
C291        C774   1.486       .  S
C293        O295   1.260       .  A
C293        O299   1.261       .  A
C293       C1097   1.480       .  S
O294      In1907   2.251       .  S
O296      In1907   2.222       .  S
C297       O1910   1.260       .  A
C297       C1433   1.487       .  S
In300       O302   2.242       .  S
In300       O303   2.246       .  S
In300       O311   2.240       .  S
In300       O305   2.255       .  S
In300       O307   2.250       .  S
In300       O308   2.245       .  S
In300       O309   2.230       .  S
In300       O312   2.243       .  S
C301        O307   1.263       .  A
C301        O309   1.260       .  A
C301        C793   1.488       .  S
O302        C310   1.263       .  A
O303        C310   1.265       .  A
C304        O311   1.257       .  A
C304        O305   1.259       .  A
C304        C777   1.479       .  S
C306        O308   1.262   1_556  A
C306        O312   1.257   1_556  A
C306       C2429   1.487       .  S
C310        C758   1.489       .  S
In313       O315   2.258       .  S
In313       O316   2.224       .  S
In313       O324   2.237       .  S
In313       O318   2.255       .  S
In313       O320   2.262       .  S
In313       O321   2.231       .  S
In313       O322   2.232       .  S
In313       O325   2.240       .  S
C314        O320   1.263       .  A
C314        O322   1.257       .  A
C314        C729   1.491       .  S
O315        C323   1.262       .  A
O316        C323   1.261       .  A
C317        O324   1.257       .  A
C317        O318   1.262       .  A
C317        C742   1.483       .  S
C319        O321   1.260       .  A
C319        O325   1.262       .  A
C319        C825   1.485       .  S
C323       C2330   1.488       .  S
In326       O328   2.247       .  S
In326       O329   2.226       .  S
In326       O337   2.238       .  S
In326       O331   2.260       .  S
In326       O334   2.248       .  S
In326      O1953   2.265       .  S
In326      O1955   2.221       .  S
In326      O1958   2.245       .  S
C327        O333   1.266       .  A
C327        O335   1.257       .  A
C327        C694   1.490       .  S
O328        C336   1.261       .  A
O329        C336   1.262       .  A
C330        O337   1.259       .  A
C330        O331   1.261       .  A
C330        C745   1.488       .  S
C332        O338   1.261       .  A
C332       O1954   1.261   1_554  A
C332       C1257   1.484       .  S
O333      In1946   2.265   1_554  S
O334       C1952   1.261       .  A
O335      In1946   2.221   1_554  S
C336        C678   1.485       .  S
O338      In1946   2.245   1_554  S
In339       O341   2.252       .  S
In339       O342   2.247       .  S
In339       O350   2.259       .  S
In339       O344   2.257       .  S
In339       O346   2.254       .  S
In339       O347   2.237       .  S
In339       O348   2.240       .  S
In339       O351   2.242       .  S
C340        O346   1.264       .  A
C340        O348   1.261       .  A
C340        C633   1.488       .  S
O341        C349   1.258       .  A
O342        C349   1.260       .  A
C343        O350   1.258       .  A
C343        O344   1.260       .  A
C343        C662   1.487       .  S
C345        O347   1.262       .  A
C345        O351   1.261       .  A
C345        C646   1.480       .  S
C349       C1449   1.485       .  S
In352       O354   2.253       .  S
In352       O355   2.247       .  S
In352       O363   2.242       .  S
In352       O357   2.264       .  S
In352       O359   2.264       .  S
In352       O360   2.236       .  S
In352       O361   2.220       .  S
In352       O364   2.246       .  S
C353        O359   1.265       .  A
C353        O361   1.257       .  A
C353        C713   1.490       .  S
O354        C362   1.260       .  A
O355        C362   1.260       .  A
C356        O363   1.260       .  A
C356        O357   1.261       .  A
C356        C665   1.490       .  S
C358        O360   1.262       .  A
C358        O364   1.261       .  A
C358        C726   1.480       .  S
C362        C761   1.489       .  S
In365       O367   2.247       .  S
In365       O368   2.238       .  S
In365       O376   2.234       .  S
In365       O370   2.258       .  S
In365       O372   2.253       .  S
In365       O373   2.248       .  S
In365       O374   2.216       .  S
In365       O377   2.243       .  S
C366        O372   1.265       .  A
C366        O374   1.259       .  A
C366        C681   1.479       .  S
O367        C375   1.261       .  A
O368        C375   1.263       .  A
C369        O376   1.258       .  A
C369        O370   1.262       .  A
C369        C614   1.484       .  S
C371        O373   1.262       .  A
C371        O377   1.259       .  A
C371        C697   1.483       .  S
C375       C1369   1.487       .  S
In378       O380   2.252       .  S
In378       O381   2.241       .  S
In378       O389   2.235       .  S
In378       O383   2.261       .  S
In378       O385   2.256       .  S
In378       O386   2.250       .  S
In378       O387   2.225       .  S
In378       O390   2.244       .  S
C379        O385   1.264       .  A
C379        O387   1.258       .  A
C379        C582   1.487       .  S
O380        C388   1.262       .  A
O381        C388   1.261       .  A
C382        O389   1.259       .  A
C382        O383   1.260       .  A
C382        C617   1.485       .  S
C384        O386   1.260       .  A
C384        O390   1.261       .  A
C384        C598   1.486       .  S
C388       C1033   1.490       .  S
In391       O393   2.255       .  S
In391       O394   2.243       .  S
In391       O402   2.234       .  S
In391       O396   2.252       .  S
In391       O399   2.242       .  S
In391      O2018   2.243       .  S
In391      O2020   2.227       .  S
In391      O2023   2.248       .  S
C392        O398   1.263       .  A
C392        O400   1.258       .  A
C392        C550   1.483       .  S
O393        C401   1.259       .  A
O394        C401   1.261       .  A
C395        O402   1.260       .  A
C395        O396   1.259       .  A
C395        C566   1.486       .  S
C397        O403   1.262       .  A
C397       O2019   1.261   1_554  A
C397       C1609   1.487       .  S
O398      In2011   2.243   1_554  S
O399       C2017   1.261       .  A
O400      In2011   2.227   1_554  S
C401        C534   1.486       .  S
O403      In2011   2.248   1_554  S
In404       O406   2.238       .  S
In404       O407   2.236       .  S
In404       O415   2.235       .  S
In404       O409   2.255       .  S
In404       O411   2.241       .  S
In404       O412   2.241       .  S
In404       O413   2.238       .  S
In404       O416   2.234       .  S
C405        O411   1.263       .  A
C405        O413   1.261       .  A
C405        C601   1.489       .  S
O406        C414   1.260       .  A
O407        C414   1.263       .  A
C408        O415   1.258       .  A
C408        O409   1.261       .  A
C408        C569   1.476       .  S
C410        O412   1.265       .  A
C410        O416   1.261       .  A
C410       C1046   1.488       .  S
C414       C2205   1.481       .  S
In417       O419   2.259       .  S
In417       O420   2.248       .  S
In417       O428   2.240       .  S
In417       O422   2.266       .  S
In417       O425   2.251       .  S
In417      O2044   2.251       .  S
In417      O2046   2.228       .  S
In417      O2049   2.243       .  S
C418        O424   1.265       .  A
C418        O426   1.260       .  A
C418        C649   1.482       .  S
O419        C427   1.262       .  A
O420        C427   1.259       .  A
C421        O428   1.258       .  A
C421        O422   1.261       .  A
C421        C521   1.484       .  S
C423        O429   1.260   1_554  A
C423       O2045   1.260       .  A
C423       C1270   1.479       .  S
O424      In2037   2.251   1_554  S
O425       C2043   1.260       .  A
O426      In2037   2.229   1_554  S
C427        C630   1.488       .  S
O429      In2037   2.243       .  S
In430       O432   2.249       .  S
In430       O433   2.237       .  S
In430       O441   2.249       .  S
In430       O435   2.247       .  S
In430       O437   2.254       .  S
In430       O438   2.238       .  S
In430       O439   2.237       .  S
In430       O442   2.255       .  S
C431        O437   1.262       .  A
C431        O439   1.260       .  A
C431        C502   1.489       .  S
O432        C440   1.261       .  A
O433        C440   1.262       .  A
C434        O441   1.259       .  A
C434        O435   1.260       .  A
C434        C518   1.477       .  S
C436        O438   1.259       .  A
C436        O442   1.258       .  A
C436        C953   1.487       .  S
C440       C2106   1.489       .  S
In443       O445   2.250       .  S
In443       O446   2.247       .  S
In443       O454   2.231       .  S
In443       O448   2.270       .  S
In443       O450   2.261       .  S
In443       O451   2.250       .  S
In443       O452   2.221       .  S
In443       O455   2.245       .  S
C444        O450   1.266       .  A
C444        O452   1.258       .  A
C444        C489   1.491       .  S
O445        C453   1.262       .  A
O446        C453   1.262       .  A
C447        O454   1.257       .  A
C447        O448   1.262       .  A
C447        C470   1.491       .  S
C449        O451   1.261       .  A
C449        O455   1.261       .  A
C449        C505   1.486       .  S
C453        C905   1.490       .  S
In456       O458   2.243       .  S
In456       O459   2.251       .  S
In456       O467   2.228       .  S
In456       O461   2.275       .  S
In456       O463   2.259       .  S
In456       O464   2.232       .  S
In456       O465   2.226       .  S
In456       O468   2.245       .  S
C457        O463   1.265       .  A
C457        O465   1.258       .  A
C457        C537   1.490       .  S
O458        C466   1.260       .  A
O459        C466   1.263       .  A
C460        O467   1.257       .  A
C460        O461   1.261       .  A
C460        C473   1.487       .  S
C462        O464   1.261       .  A
C462        O468   1.261       .  A
C462        C553   1.483       .  S
C466       C1145   1.487       .  S
C469        C470   1.409       .  A
C469        C474   1.410       .  A
C469        H476   1.083       .  S
C470        C471   1.419       .  A
C471        C472   1.401       .  A
C471        C478   1.509       .  S
C472        C473   1.402       .  A
C472        H477   1.084       .  S
C473        C474   1.416       .  A
C474        C475   1.507       .  S
C475        H479   1.111       .  S
C475        H480   1.110       .  S
C475        H481   1.110       .  S
C478        H482   1.110       .  S
C478        H483   1.110       .  S
C478        H484   1.111       .  S
C485        C486   1.404       .  A
C485        C490   1.403       .  A
C485        H492   1.084       .  S
C486       C2060   1.489       .  S
C486        C487   1.418       .  A
C487        C488   1.407       .  A
C487        C494   1.507       .  S
C488        C489   1.405       .  A
C488        H493   1.084       .  S
C489        C490   1.420       .  A
C490        C491   1.510       .  S
C491        H495   1.111       .  S
C491        H496   1.110       .  S
C491        H497   1.110       .  S
C494        H498   1.110       .  S
C494        H500   1.111       .  S
C494       H2119   1.110   1_554  S
H499       C2114   1.110       .  S
C501        C502   1.406       .  A
C501        C506   1.404       .  A
C501        H508   1.084       .  S
C502        C503   1.417       .  A
C503        C504   1.405       .  A
C503        C510   1.508       .  S
C504        C505   1.405       .  A
C504        H509   1.084       .  S
C505        C506   1.415       .  A
C506        C507   1.508       .  S
C507        H511   1.111       .  S
C507        H512   1.110       .  S
C507        H513   1.110       .  S
C510        H514   1.110       .  S
C510        H515   1.111       .  S
C510        H516   1.111       .  S
C517        C518   1.401       .  A
C517        C522   1.404       .  A
C517        H524   1.084       .  S
C518        C519   1.413       .  A
C519        C520   1.407       .  A
C519       C2146   1.507       .  S
C520        C521   1.405       .  A
C520       H2145   1.083       .  S
C521        C522   1.417       .  A
C522        C523   1.508       .  S
C523        H527   1.111       .  S
C523        H528   1.111       .  S
C523        H529   1.109       .  S
H525       C2140   1.083   1_554  S
C526       C2139   1.507   1_554  S
C526        H530   1.111       .  S
C526        H531   1.110       .  S
C526        H532   1.111       .  S
C533        C534   1.402       .  A
C533        C538   1.403       .  A
C533        H540   1.084       .  S
C534        C535   1.417       .  A
C535        C536   1.407       .  A
C535        C542   1.507       .  S
C536        C537   1.406       .  A
C536        H541   1.083       .  S
C537        C538   1.421       .  A
C538        C539   1.509       .  S
C539        H543   1.111       .  S
C539        H544   1.110       .  S
C539        H545   1.110       .  S
C542        H546   1.110       .  S
C542        H547   1.111       .  S
C542        H548   1.111       .  S
C549        C550   1.404       .  A
C549        C554   1.403       .  A
C549        H556   1.084       .  S
C550        C551   1.418       .  A
C551        C552   1.402       .  A
C551        C558   1.509       .  S
C552        C553   1.404       .  A
C552        H557   1.084       .  S
C553        C554   1.417       .  A
C554        C555   1.508       .  S
C555        H559   1.111       .  S
C555        H560   1.110       .  S
C555        H561   1.110       .  S
C558        H562   1.110       .  S
C558        H563   1.110       .  S
C558        H564   1.111       .  S
C565        C566   1.405       .  A
C565        C570   1.401       .  A
C565        H572   1.084       .  S
C566        C567   1.420       .  A
C567        C568   1.406       .  A
C567        C574   1.508       .  S
C568        C569   1.402       .  A
C568        H573   1.084       .  S
C569        C570   1.412       .  A
C570        C571   1.508       .  S
C571        H577   1.111       .  S
C571       H2195   1.111       .  S
C571       H2196   1.109       .  S
C574        H578   1.110       .  S
C574        H579   1.110       .  S
C574        H580   1.111       .  S
H575       C2191   1.111       .  S
H576       C2191   1.109       .  S
C581        C582   1.406       .  A
C581        C586   1.405       .  A
C581        H588   1.083       .  S
C582        C583   1.420       .  A
C583        C584   1.402       .  A
C583        C590   1.509       .  S
C584        C585   1.401       .  A
C584        H589   1.084       .  S
C585       C2034   1.481       .  S
C585        C586   1.416       .  A
C586       C2207   1.508       .  S
C587       C2206   1.508       .  S
C587        H591   1.111       .  S
C587        H592   1.110       .  S
C587        H593   1.111       .  S
C590        H594   1.110       .  S
C590        H595   1.111       .  S
C590        H596   1.111       .  S
C597        C598   1.404       .  A
C597        C602   1.403       .  A
C597        H604   1.084       .  S
C598        C599   1.416       .  A
C599        C600   1.406       .  A
C599        C606   1.508       .  S
C600        C601   1.408       .  A
C600        H605   1.084       .  S
C601        C602   1.417       .  A
C602        C603   1.508       .  S
C603        H607   1.111       .  S
C603        H608   1.110       .  S
C603        H609   1.110       .  S
C606        H610   1.110       .  S
C606        H611   1.109       .  S
C606        H612   1.111       .  S
C613        C614   1.405       .  A
C613        C618   1.407       .  A
C613        H620   1.084       .  S
C614        C615   1.416       .  A
C615        C616   1.401       .  A
C615        C622   1.509       .  S
C616        C617   1.403       .  A
C616        H621   1.084       .  S
C617        C618   1.417       .  A
C618        C619   1.507       .  S
C619        H623   1.111       .  S
C619        H624   1.110       .  S
C619        H625   1.110       .  S
C622        H626   1.111       .  S
C622        H627   1.109       .  S
C622        H628   1.111       .  S
C629        C630   1.404       .  A
C629        C634   1.406       .  A
C629        H636   1.085       .  S
C630        C631   1.417       .  A
C631        C632   1.406       .  A
C631        C638   1.508       .  S
C632        C633   1.406       .  A
C632        H637   1.085       .  S
C633        C634   1.416       .  A
C634        C635   1.507       .  S
C635        H639   1.111       .  S
C635        H640   1.111       .  S
C635        H641   1.110       .  S
C638        H642   1.109       .  S
C638        H643   1.111       .  S
C638        H644   1.111       .  S
C645        C646   1.403       .  A
C645        C650   1.404       .  A
C645        H652   1.084       .  S
C646        C647   1.415       .  A
C647        C648   1.405       .  A
C647        C654   1.508       .  S
C648        C649   1.404       .  A
C648        H653   1.084       .  S
C649        C650   1.416       .  A
C650        C651   1.508       .  S
C651        H655   1.111       .  S
C651        H656   1.109       .  S
C651        H657   1.111       .  S
C654        H658   1.111       .  S
C654        H659   1.110       .  S
C654        H660   1.111       .  S
C661        C662   1.406       .  A
C661        C666   1.409       .  A
C661        H668   1.084       .  S
C662        C663   1.414       .  A
C663        C664   1.404       .  A
C663        C670   1.508       .  S
C664        C665   1.406       .  A
C664        H669   1.084       .  S
C665        C666   1.418       .  A
C666        C667   1.507       .  S
C667        H671   1.111       .  S
C667        H672   1.110       .  S
C667        H673   1.110       .  S
C670        H674   1.110       .  S
C670        H675   1.111       .  S
C670        H676   1.111       .  S
C677        C678   1.404       .  A
C677        C682   1.399       .  A
C677        H684   1.083       .  S
C678        C679   1.418       .  A
C679        C680   1.406       .  A
C679        C686   1.507       .  S
C680        C681   1.403       .  A
C680        H685   1.084       .  S
C681        C682   1.415       .  A
C682        C683   1.510       .  S
C683        H687   1.111       .  S
C683        H688   1.109       .  S
C683        H689   1.111       .  S
C686        H690   1.110       .  S
C686        H691   1.110       .  S
C686        H692   1.111       .  S
C693        C694   1.406       .  A
C693        C698   1.406       .  A
C693        H700   1.083       .  S
C694        C695   1.422       .  A
C695        C696   1.404       .  A
C695        C702   1.509       .  S
C696        C697   1.401       .  A
C696        H701   1.084       .  S
C697        C698   1.416       .  A
C698        C699   1.508       .  S
C699        H703   1.111       .  S
C699        H704   1.111       .  S
C699        H705   1.110       .  S
C702        H706   1.110       .  S
C702        H707   1.111       .  S
C702        H708   1.111       .  S
C709        C710   1.403       .  A
C709        C714   1.401       .  A
C709        H716   1.084       .  S
C710       C1943   1.488   1_554  S
C710        C711   1.417       .  A
C711        C712   1.408       .  A
C711        C718   1.507       .  S
C712        C713   1.406       .  A
C712        H717   1.084       .  S
C713        C714   1.420       .  A
C714        C715   1.510       .  S
C715        H719   1.111       .  S
C715        H720   1.110       .  S
C715        H721   1.110       .  S
C718        H722   1.110       .  S
C718        H723   1.110   1_554  S
C718        H724   1.111       .  S
C725        C726   1.400       .  A
C725        C730   1.403       .  A
C725        H732   1.084       .  S
C726        C727   1.414       .  A
C727        C728   1.406       .  A
C727        C734   1.508       .  S
C728        C729   1.407       .  A
C728        H733   1.084       .  S
C729        C730   1.421       .  A
C730        C731   1.509       .  S
C731        H735   1.111       .  S
C731        H736   1.110       .  S
C731        H737   1.110       .  S
C734        H738   1.111       .  S
C734        H739   1.110       .  S
C734        H740   1.111       .  S
C741        C742   1.404       .  A
C741        C746   1.405       .  A
C741        H748   1.084       .  S
C742        C743   1.416       .  A
C743        C744   1.403       .  A
C743        C750   1.509       .  S
C744        C745   1.406       .  A
C744        H749   1.084       .  S
C745        C746   1.417       .  A
C746        C747   1.507       .  S
C747        H751   1.111       .  S
C747        H753   1.110       .  S
C747       H2372   1.110       .  S
C750        H754   1.109       .  S
C750        H755   1.111       .  S
C750        H756   1.111       .  S
H752       C2367   1.110       .  S
C757        C758   1.404       .  A
C757        C762   1.406   1_655  A
C757        H764   1.084       .  S
C758        C759   1.418       .  A
C759        C760   1.406   1_655  A
C759        C766   1.508       .  S
C760        C761   1.405       .  A
C760        H765   1.084       .  S
C761        C762   1.418       .  A
C762        C763   1.508       .  S
C763        H767   1.111       .  S
C763        H768   1.110       .  S
C763        H769   1.110       .  S
C766        H770   1.110       .  S
C766        H771   1.111       .  S
C766        H772   1.111       .  S
C773        C774   1.406       .  A
C773        C778   1.402       .  A
C773        H780   1.084       .  S
C774        C775   1.418       .  A
C775        C776   1.405       .  A
C775        C782   1.508   1_554  S
C776        C777   1.403       .  A
C776        H781   1.084       .  S
C777        C778   1.413       .  A
C778        C779   1.508       .  S
C779        H783   1.111       .  S
C779        H784   1.111       .  S
C779        H785   1.109       .  S
C782        H786   1.110   1_556  S
C782        H788   1.111       .  S
C782       H2407   1.110       .  S
H787       C2402   1.110       .  S
C789        C790   1.404       .  A
C789        C794   1.405       .  A
C789        H796   1.084       .  S
C790        C791   1.416       .  A
C791        C792   1.402       .  A
C791        C798   1.509       .  S
C792        C793   1.406       .  A
C792        H797   1.084       .  S
C793        C794   1.418       .  A
C794        C795   1.507       .  S
C795        H799   1.111       .  S
C795        H800   1.110       .  S
C795        H801   1.110       .  S
C798        H802   1.109       .  S
C798        H803   1.111       .  S
C798        H804   1.111       .  S
C805        C806   1.405       .  A
C805        C810   1.406       .  A
C805        H812   1.083       .  S
C806        C807   1.419       .  A
C807        C808   1.402       .  A
C807        C814   1.509       .  S
C808        C809   1.403       .  A
C808        H813   1.083       .  S
C809       C1926   1.487       .  S
C809        C810   1.419       .  A
C810       C2431   1.508       .  S
C811       C2430   1.508       .  S
C811        H816   1.110   1_556  S
C811        H817   1.110       .  S
C811       H2435   1.111       .  S
C814        H818   1.110       .  S
C814        H819   1.110       .  S
C814        H820   1.111       .  S
H815       C2431   1.111       .  S
C821        C822   1.402       .  A
C821        C826   1.401   1_655  A
C821        H828   1.084       .  S
C822        C823   1.413       .  A
C823        C824   1.403   1_655  A
C823        C830   1.507       .  S
C824        C825   1.407       .  A
C824        H829   1.084       .  S
C825        C826   1.418       .  A
C826        C827   1.509       .  S
C827        H831   1.111   1_455  S
C827        H832   1.110       .  S
C827        H833   1.110       .  S
C830        H834   1.110       .  S
C830        H835   1.109       .  S
C830        H836   1.111   1_655  S
C837        C838   1.403       .  A
C837        C842   1.404       .  A
C837        H844   1.083       .  S
C838        C839   1.415       .  A
C839        C840   1.405       .  A
C839        C846   1.507       .  S
C840        C841   1.404       .  A
C840        H845   1.083       .  S
C841        C842   1.418       .  A
C842        C843   1.509       .  S
C843        H847   1.111       .  S
C843        H848   1.111       .  S
C843        H849   1.110       .  S
C846        H850   1.111       .  S
C846        H851   1.110       .  S
C846        H852   1.111       .  S
C853        C854   1.404       .  A
C853        C858   1.405       .  A
C853        H860   1.084       .  S
C854        C855   1.417       .  A
C855        C856   1.405       .  A
C855        C862   1.508       .  S
C856        C857   1.404       .  A
C856        H861   1.084       .  S
C857        C858   1.416       .  A
C858        C859   1.508       .  S
C859        H863   1.111       .  S
C859        H864   1.109       .  S
C859        H865   1.111       .  S
C862        H866   1.111       .  S
C862        H867   1.110       .  S
C862        H868   1.111       .  S
C869        C870   1.403       .  A
C869        C874   1.402       .  A
C869        H876   1.085       .  S
C870        C871   1.416       .  A
C871        C872   1.408       .  A
C871        C878   1.507       .  S
C872        C873   1.408       .  A
C872        H877   1.084       .  S
C873        C874   1.420       .  A
C874        C875   1.509       .  S
C875        H879   1.111       .  S
C875        H880   1.110       .  S
C875        H881   1.110       .  S
C878        H882   1.109       .  S
C878        H883   1.110       .  S
C878        H884   1.111       .  S
C885        C886   1.400       .  A
C885        C890   1.403       .  A
C885        H892   1.084       .  S
C886        C887   1.413       .  A
C887        C888   1.407       .  A
C887       C2514   1.507   1_554  S
C888        C889   1.407       .  A
C888       H2513   1.083   1_554  S
C889        C890   1.418       .  A
C890        C891   1.508       .  S
C891        H895   1.111       .  S
C891        H896   1.110       .  S
C891        H897   1.110       .  S
H893       C2508   1.083       .  S
C894       C2507   1.507       .  S
C894        H898   1.110       .  S
C894        H899   1.111       .  S
C894        H900   1.111       .  S
C901        C902   1.407       .  A
C901        C906   1.406       .  A
C901        H908   1.084       .  S
C902        C903   1.417       .  A
C903        C904   1.407       .  A
C903        C910   1.507       .  S
C904        C905   1.407       .  A
C904        H909   1.084       .  S
C905        C906   1.416       .  A
C906        C907   1.508       .  S
C907        H911   1.111       .  S
C907        H912   1.109       .  S
C907        H913   1.110       .  S
C910        H914   1.109       .  S
C910        H915   1.110       .  S
C910        H916   1.111       .  S
C917        C918   1.404       .  A
C917        C922   1.402       .  A
C917        H924   1.084       .  S
C918        C919   1.415       .  A
C919        C920   1.405       .  A
C919        C926   1.507       .  S
C920        C921   1.407       .  A
C920        H925   1.084       .  S
C921        C922   1.418       .  A
C922        C923   1.509       .  S
C923        H927   1.111       .  S
C923        H928   1.110       .  S
C923        H929   1.110       .  S
C926        H930   1.109       .  S
C926        H931   1.110       .  S
C926        H932   1.111       .  S
C933        C934   1.402       .  A
C933        C938   1.403       .  A
C933        H940   1.084       .  S
C934       C1861   1.487       .  S
C934        C935   1.417       .  A
C935        C936   1.407       .  A
C935        C942   1.507       .  S
C936        C937   1.406       .  A
C936        H941   1.083       .  S
C937        C938   1.420       .  A
C938        C939   1.509       .  S
C939        H943   1.111       .  S
C939        H944   1.109       .  S
C939        H945   1.111       .  S
C942        H947   1.110       .  S
C942        H948   1.111       .  S
C942       H2566   1.110       .  S
H946       C2562   1.110   1_554  S
C949        C950   1.401       .  A
C949        C954   1.407       .  A
C949        H956   1.085       .  S
C950        C951   1.415       .  A
C951        C952   1.400       .  A
C951        C958   1.510       .  S
C952        C953   1.405       .  A
C952        H957   1.084       .  S
C953        C954   1.420       .  A
C954        C955   1.507       .  S
C955        H959   1.111       .  S
C955        H960   1.110       .  S
C955        H961   1.111       .  S
C958        H962   1.111       .  S
C958        H963   1.109       .  S
C958        H964   1.111       .  S
C965        C966   1.408       .  A
C965        C970   1.407       .  A
C965        H972   1.084       .  S
C966        C967   1.420       .  A
C967        C968   1.403       .  A
C967        C974   1.509       .  S
C968        C969   1.402       .  A
C968        H973   1.084       .  S
C969        C970   1.413       .  A
C970        C971   1.507       .  S
C971        H975   1.111       .  S
C971        H976   1.109       .  S
C971        H977   1.111       .  S
C974        H978   1.110       .  S
C974        H979   1.110       .  S
C974        H980   1.111       .  S
C981        C982   1.403       .  A
C981        C986   1.405       .  A
C981        H988   1.084       .  S
C982        C983   1.417       .  A
C983        C984   1.404       .  A
C983        C990   1.508       .  S
C984        C985   1.404       .  A
C984        H989   1.084       .  S
C985        C986   1.420       .  A
C986        C987   1.509       .  S
C987        H991   1.111       .  S
C987        H992   1.110       .  S
C987        H993   1.111       .  S
C990        H994   1.110       .  S
C990        H995   1.110       .  S
C990        H996   1.111       .  S
C997        C998   1.406       .  A
C997       C1002   1.406       .  A
C997       H1004   1.084       .  S
C998        C999   1.420       .  A
C999       C1000   1.402       .  A
C999       C1006   1.509       .  S
C1000      C1001   1.401       .  A
C1000      H1005   1.084       .  S
C1001      C1002   1.417       .  A
C1002      C1003   1.508       .  S
C1003      H1007   1.111       .  S
C1003      H1008   1.110       .  S
C1003      H1009   1.111       .  S
C1006      H1010   1.110       .  S
C1006      H1011   1.110       .  S
C1006      H1012   1.111       .  S
C1013      C1014   1.404       .  A
C1013      C1018   1.404       .  A
C1013      H1020   1.084       .  S
C1014      C1015   1.417       .  A
C1015      C1016   1.407       .  A
C1015      C2642   1.508       .  S
C1016      C1017   1.404       .  A
C1016      H2641   1.084       .  S
C1017      C1018   1.417       .  A
C1018      C1019   1.508       .  S
C1019      H1023   1.111       .  S
C1019      H1024   1.111       .  S
C1019      H1025   1.109       .  S
H1021      C2636   1.084       .  S
C1022      C2635   1.508       .  S
C1022      H1026   1.111       .  S
C1022      H1028   1.111       .  S
C1022      H2647   1.109       .  S
H1027      C2642   1.109       .  S
C1029      C1030   1.406       .  A
C1029      C1034   1.405   1_545  A
C1029      H1036   1.084       .  S
C1030      C1031   1.418   1_545  A
C1031      C1032   1.406       .  A
C1031      C1038   1.508       .  S
C1032      C1033   1.406       .  A
C1032      H1037   1.084       .  S
C1033      C1034   1.417       .  A
C1034      C1035   1.508       .  S
C1035      H1039   1.111   1_565  S
C1035      H1040   1.109       .  S
C1035      H1041   1.110       .  S
C1038      H1042   1.109   1_565  S
C1038      H1043   1.110   1_565  S
C1038      H1044   1.111       .  S
C1045      C1046   1.404       .  A
C1045      C1050   1.403   1_565  A
C1045      H1052   1.084       .  S
C1046      C1047   1.420       .  A
C1047      C1048   1.405       .  A
C1047      C1054   1.508       .  S
C1048      C1049   1.403   1_565  A
C1048      H1053   1.084   1_565  S
C1049      C1050   1.418       .  A
C1050      C1051   1.509       .  S
C1051      H1055   1.111       .  S
C1051      H1056   1.111       .  S
C1051      H1057   1.110       .  S
C1054      H1058   1.110       .  S
C1054      H1059   1.110       .  S
C1054      H1060   1.111       .  S
C1061      C1062   1.403       .  A
C1061      C1066   1.406       .  A
C1061      H1068   1.084       .  S
C1062      C1063   1.418       .  A
C1063      C1064   1.400       .  A
C1063      C1070   1.510       .  S
C1064      C1065   1.404       .  A
C1064      H1069   1.084       .  S
C1065      C1809   1.487       .  S
C1065      C1066   1.419       .  A
C1066      C1067   1.508       .  S
C1067      H1071   1.111       .  S
C1067      H1072   1.110       .  S
C1067      H1073   1.110       .  S
C1070      H1074   1.111       .  S
C1070      H1075   1.110       .  S
C1070      H1076   1.111       .  S
C1077      C1078   1.406       .  A
C1077      C1082   1.404       .  A
C1077      H1084   1.083       .  S
C1078      C1079   1.420       .  A
C1079      C1080   1.401       .  A
C1079      C1086   1.509       .  S
C1080      C1081   1.401       .  A
C1080      H1085   1.084       .  S
C1081      C1082   1.416       .  A
C1082      C1083   1.508       .  S
C1083      H1087   1.111       .  S
C1083      H1088   1.110       .  S
C1083      H1089   1.111       .  S
C1086      H1090   1.110       .  S
C1086      H1091   1.110       .  S
C1086      H1092   1.111       .  S
C1093      C1094   1.407       .  A
C1093      C1098   1.406       .  A
C1093      H1100   1.083       .  S
C1094      C1095   1.420       .  A
C1095      C1096   1.400       .  A
C1095      C1102   1.509       .  S
C1096      C1097   1.400       .  A
C1096      H1101   1.084       .  S
C1097      C1098   1.415       .  A
C1098      C1099   1.507       .  S
C1099      H1103   1.111       .  S
C1099      H1104   1.111       .  S
C1099      H1105   1.110       .  S
C1102      H1106   1.110       .  S
C1102      H1107   1.111       .  S
C1102      H1108   1.111       .  S
C1109      C1110   1.406       .  A
C1109      C1114   1.405       .  A
C1109      H1116   1.083       .  S
C1110      C1111   1.420       .  A
C1111      C1112   1.402       .  A
C1111      C1118   1.509       .  S
C1112      C1113   1.401       .  A
C1112      H1117   1.084       .  S
C1113      C1114   1.417       .  A
C1114      C1115   1.508       .  S
C1115      H1119   1.111       .  S
C1115      H1120   1.110       .  S
C1115      H1121   1.111       .  S
C1118      H1122   1.110       .  S
C1118      H1123   1.110       .  S
C1118      H1124   1.111       .  S
C1125      C1126   1.401       .  A
C1125      C1130   1.404       .  A
C1125      H1132   1.084       .  S
C1126      C1127   1.413       .  A
C1127      C1128   1.403       .  A
C1127      C1134   1.509       .  S
C1128      C1129   1.407       .  A
C1128      H1133   1.084       .  S
C1129      C1130   1.419       .  A
C1130      C1131   1.507       .  S
C1131      H1135   1.111       .  S
C1131      H1136   1.110       .  S
C1131      H1137   1.110       .  S
C1134      H1138   1.109       .  S
C1134      H1139   1.111       .  S
C1134      H1140   1.111       .  S
C1141      C1142   1.406       .  A
C1141      C1146   1.406       .  A
C1141      H1148   1.084       .  S
C1142      C1143   1.420       .  A
C1143      C1144   1.406       .  A
C1143      C1150   1.508       .  S
C1144      C1145   1.403       .  A
C1144      H1149   1.084       .  S
C1145      C1146   1.417       .  A
C1146      C1147   1.509       .  S
C1147      H1151   1.111       .  S
C1147      H1152   1.110       .  S
C1147      H1153   1.111       .  S
C1150      H1154   1.110       .  S
C1150      H1155   1.110       .  S
C1150      H1156   1.111       .  S
C1157      C1158   1.406       .  A
C1157      C1162   1.406       .  A
C1157      H1164   1.084       .  S
C1158      C1159   1.420       .  A
C1159      C1160   1.402       .  A
C1159      C1166   1.509       .  S
C1160      C1161   1.402       .  A
C1160      H1165   1.084       .  S
C1161      C1162   1.416       .  A
C1162      C1163   1.508       .  S
C1163      H1167   1.111       .  S
C1163      H1168   1.110       .  S
C1163      H1169   1.110       .  S
C1166      H1170   1.110       .  S
C1166      H1171   1.110       .  S
C1166      H1172   1.111       .  S
C1173      C1174   1.404       .  A
C1173      C1178   1.404       .  A
C1173      H1180   1.084       .  S
C1174      C1175   1.418       .  A
C1175      C1176   1.406       .  A
C1175      C1182   1.508       .  S
C1176      C1177   1.404       .  A
C1176      H1181   1.084       .  S
C1177      C1178   1.418       .  A
C1178      C1179   1.508       .  S
C1179      H1183   1.111       .  S
C1179      H1184   1.110       .  S
C1179      H1185   1.111       .  S
C1182      H1186   1.110       .  S
C1182      H1187   1.111       .  S
C1182      H1188   1.111       .  S
C1189      C1190   1.403       .  A
C1189      C2814   1.400   1_554  A
C1189      H1196   1.084       .  S
C1190      C1191   1.419       .  A
C1191      C1192   1.410       .  A
C1191      C1198   1.507       .  S
C1192      C2813   1.405   1_554  A
C1192      H1197   1.083       .  S
C1193      C1194   1.420       .  A
C1193      C2812   1.405       .  A
C1194      C2809   1.400       .  A
C1194      C1195   1.511       .  S
C1195      H1199   1.111       .  S
C1195      H1200   1.110       .  S
C1195      H1201   1.111       .  S
C1198      H1202   1.110       .  S
C1198      H1203   1.110       .  S
C1198      H1204   1.111       .  S
C1205      C1206   1.405       .  A
C1205      C1210   1.404       .  A
C1205      H1212   1.085       .  S
C1206      C1207   1.416       .  A
C1207      C1208   1.405       .  A
C1207      C1214   1.507       .  S
C1208      C1209   1.406       .  A
C1208      H1213   1.084       .  S
C1209      C1210   1.419       .  A
C1210      C1211   1.509       .  S
C1211      H1215   1.111       .  S
C1211      H1216   1.110       .  S
C1211      H1217   1.110       .  S
C1214      H1218   1.110       .  S
C1214      H1219   1.110       .  S
C1214      H1220   1.111       .  S
C1221      C1222   1.406       .  A
C1221      C1226   1.404       .  A
C1221      H1228   1.084       .  S
C1222      C1223   1.419       .  A
C1223      C1224   1.406       .  A
C1223      C1230   1.507       .  S
C1224      C1225   1.403       .  A
C1224      H1229   1.084       .  S
C1225      C1226   1.416       .  A
C1226      C1227   1.509       .  S
C1227      H1231   1.111       .  S
C1227      H1232   1.111       .  S
C1227      H1233   1.110       .  S
C1230      H1234   1.110       .  S
C1230      H1235   1.110       .  S
C1230      H1236   1.111       .  S
C1237      C1238   1.404       .  A
C1237      C1242   1.404   1_455  A
C1237      H1244   1.083       .  S
C1238      C1239   1.419       .  A
C1239      C1240   1.404   1_455  A
C1239      C1246   1.509       .  S
C1240      C1241   1.403       .  A
C1240      H1245   1.083       .  S
C1241      C1242   1.416       .  A
C1242      C1243   1.508       .  S
C1243      H1247   1.111       .  S
C1243      H1248   1.111       .  S
C1243      H1249   1.109       .  S
C1246      H1250   1.111       .  S
C1246      H1251   1.110       .  S
C1246      H1252   1.111       .  S
C1253      C1254   1.404       .  A
C1253      C1258   1.404       .  A
C1253      H1260   1.084       .  S
C1254      C1255   1.418       .  A
C1255      C1256   1.407       .  A
C1255      C1262   1.508   1_554  S
C1256      C1257   1.404       .  A
C1256      H1261   1.084   1_554  S
C1257      C1258   1.416       .  A
C1258      C1259   1.509       .  S
C1259      H1263   1.111       .  S
C1259      H1264   1.111       .  S
C1259      H1265   1.110       .  S
C1262      H1266   1.111       .  S
C1262      H1267   1.110       .  S
C1262      H1268   1.111       .  S
C1269      C1270   1.403       .  A
C1269      C1274   1.405       .  A
C1269      H1276   1.085       .  S
C1270      C1271   1.412       .  A
C1271      C1272   1.404       .  A
C1271      C1278   1.507   1_554  S
C1272      C1273   1.406       .  A
C1272      H1277   1.084       .  S
C1273      C1274   1.420       .  A
C1274      C1275   1.509       .  S
C1275      H1279   1.111       .  S
C1275      H1280   1.110       .  S
C1275      H1281   1.110       .  S
C1278      H1282   1.110       .  S
C1278      H1283   1.109       .  S
C1278      H1284   1.111       .  S
C1285      C1286   1.404       .  A
C1285      C1290   1.403       .  A
C1285      H1292   1.084       .  S
C1286      C1287   1.417       .  A
C1287      C1288   1.406       .  A
C1287      C1294   1.507       .  S
C1288      C1289   1.404       .  A
C1288      H1293   1.084       .  S
C1289      C1290   1.416       .  A
C1290      C1291   1.509       .  S
C1291      H1295   1.111       .  S
C1291      H1296   1.110       .  S
C1291      H1297   1.110       .  S
C1294      H1298   1.110       .  S
C1294      H1299   1.110       .  S
C1294      H1300   1.111       .  S
C1301      C1302   1.406       .  A
C1301      C1306   1.404       .  A
C1301      H1308   1.084       .  S
C1302      C1303   1.417       .  A
C1303      C1304   1.404       .  A
C1303      C1310   1.509       .  S
C1304      C1305   1.406       .  A
C1304      H1309   1.083       .  S
C1305      C1306   1.416       .  A
C1306      C1307   1.508       .  S
C1307      H1311   1.111       .  S
C1307      H1312   1.110       .  S
C1307      H1313   1.110       .  S
C1310      H1314   1.110       .  S
C1310      H1315   1.110       .  S
C1310      H1316   1.111       .  S
C1317      C1318   1.407       .  A
C1317      C2942   1.401       .  A
C1317      H1324   1.084       .  S
C1318      C2939   1.418       .  A
C1319      C1320   1.406       .  A
C1319      C2938   1.418   1_554  A
C1319      C1326   1.507       .  S
C1320      C1321   1.404       .  A
C1320      H1325   1.085       .  S
C1321      C1322   1.413       .  A
C1322      C2937   1.401   1_554  A
C1322      C1323   1.508       .  S
C1323      H1328   1.109       .  S
C1323      H1329   1.110       .  S
C1323      H2947   1.111   1_554  S
C1326      H1330   1.110       .  S
C1326      H1331   1.110       .  S
C1326      H1332   1.111       .  S
H1327      C2943   1.111       .  S
C1333      C1334   1.404       .  A
C1333      C1338   1.402       .  A
C1333      H1340   1.084       .  S
C1334      C1335   1.418       .  A
C1335      C1336   1.406       .  A
C1335      C1342   1.508       .  S
C1336      C1337   1.404       .  A
C1336      H1341   1.084       .  S
C1337      C1338   1.418       .  A
C1338      C1339   1.509       .  S
C1339      H1343   1.111       .  S
C1339      H1344   1.110       .  S
C1339      H1345   1.110       .  S
C1342      H1346   1.110       .  S
C1342      H1347   1.110       .  S
C1342      H1348   1.111       .  S
C1349      C1350   1.405       .  A
C1349      C1354   1.406       .  A
C1349      H1356   1.083       .  S
C1350      C1351   1.416       .  A
C1351      C1352   1.406       .  A
C1351      C1358   1.507       .  S
C1352      C1353   1.406       .  A
C1352      H1357   1.083       .  S
C1353      C1354   1.419       .  A
C1354      C1355   1.508       .  S
C1355      H1359   1.111       .  S
C1355      H1360   1.109       .  S
C1355      H1361   1.111       .  S
C1358      H1362   1.109       .  S
C1358      H1364   1.111       .  S
C1358      H2983   1.111       .  S
H1363      C2978   1.111       .  S
C1365      C1366   1.404       .  A
C1365      C1370   1.405       .  A
C1365      H1372   1.084       .  S
C1366      C1367   1.416       .  A
C1367      C1368   1.404       .  A
C1367      C1374   1.508       .  S
C1368      C1369   1.405       .  A
C1368      H1373   1.084       .  S
C1369      C1370   1.418       .  A
C1370      C1371   1.508       .  S
C1371      H1375   1.111       .  S
C1371      H1376   1.110       .  S
C1371      H1377   1.110       .  S
C1374      H1378   1.110       .  S
C1374      H1379   1.110       .  S
C1374      H1380   1.111       .  S
C1381      C1382   1.406       .  A
C1381      C1386   1.402       .  A
C1381      H1388   1.084       .  S
C1382      C1383   1.418       .  A
C1383      C1384   1.405       .  A
C1383      C1390   1.507       .  S
C1384      C1385   1.403       .  A
C1384      H1389   1.084       .  S
C1385      C1386   1.414       .  A
C1386      C1387   1.509       .  S
C1387      H1391   1.111       .  S
C1387      H1392   1.109       .  S
C1387      H1393   1.111       .  S
C1390      H1394   1.110       .  S
C1390      H1395   1.110       .  S
C1390      H1396   1.111       .  S
C1397      C1398   1.402       .  A
C1397      C3022   1.400       .  A
C1397      H1404   1.084       .  S
C1398      C1399   1.416       .  A
C1399      C1400   1.406       .  A
C1399      C1406   1.507       .  S
C1400      C3021   1.406       .  A
C1400      H1405   1.083       .  S
C1401      C1402   1.419       .  A
C1401      C3020   1.406   1_554  A
C1402      C3017   1.400   1_554  A
C1402      C1403   1.510       .  S
C1403      H1407   1.111       .  S
C1403      H1408   1.110       .  S
C1403      H1409   1.111       .  S
C1406      H1410   1.110       .  S
C1406      H1411   1.110       .  S
C1406      H1412   1.111       .  S
C1413      C1414   1.403       .  A
C1413      C1418   1.407   1_565  A
C1413      H1420   1.084       .  S
C1414      C1415   1.415       .  A
C1415      C1416   1.404   1_565  A
C1415      C1422   1.508       .  S
C1416      C1417   1.406       .  A
C1416      H1421   1.084       .  S
C1417      C1418   1.420       .  A
C1418      C1419   1.508       .  S
C1419      H1423   1.111       .  S
C1419      H1424   1.110       .  S
C1419      H1425   1.110       .  S
C1422      H1426   1.111       .  S
C1422      H1427   1.109       .  S
C1422      H1428   1.111       .  S
C1429      C1430   1.407       .  A
C1429      C1434   1.406       .  A
C1429      H1436   1.084       .  S
C1430      C1431   1.417       .  A
C1431      C1432   1.401       .  A
C1431      C1438   1.509       .  S
C1432      C1433   1.405       .  A
C1432      H1437   1.084       .  S
C1433      C1434   1.417       .  A
C1434      C3055   1.508       .  S
C1435      C3054   1.508   1_554  S
C1435      H1439   1.111       .  S
C1435      H1440   1.110       .  S
C1435      H3061   1.110       .  S
C1438      H1442   1.110       .  S
C1438      H1443   1.110       .  S
C1438      H1444   1.111       .  S
H1441      C3055   1.110       .  S
C1445      C1446   1.404       .  A
C1445      C1450   1.406       .  A
C1445      H1452   1.084       .  S
C1446      C1447   1.418       .  A
C1447      C1448   1.403       .  A
C1447      C1454   1.508       .  S
C1448      C1449   1.403       .  A
C1448      H1453   1.084       .  S
C1449      C1450   1.418       .  A
C1450      C1451   1.508       .  S
C1451      H1455   1.111       .  S
C1451      H1456   1.110       .  S
C1451      H1457   1.110       .  S
C1454      H1458   1.110       .  S
C1454      H1459   1.110       .  S
C1454      H1460   1.111       .  S
C1461      C1462   1.400       .  A
C1461      C3086   1.402       .  A
C1461      H1468   1.084       .  S
C1462      C1463   1.416       .  A
C1463      C1464   1.406       .  A
C1463      C1470   1.509       .  S
C1464      C3085   1.407       .  A
C1464      H1469   1.083       .  S
C1465      C1466   1.421       .  A
C1465      C3084   1.407   1_554  A
C1466      C3081   1.402   1_554  A
C1466      C1467   1.509       .  S
C1467      H1471   1.111       .  S
C1467      H1472   1.110       .  S
C1467      H1473   1.110       .  S
C1470      H1474   1.111       .  S
C1470      H1475   1.110       .  S
C1470      H1476   1.111       .  S
C1477      C1478   1.404       .  A
C1477      C1482   1.403       .  A
C1477      H1484   1.085       .  S
C1478      C1479   1.417       .  A
C1479      C1480   1.402       .  A
C1479      C1486   1.509       .  S
C1480      C1481   1.406       .  A
C1480      H1485   1.085       .  S
C1481      C1482   1.417       .  A
C1482      C1483   1.508       .  S
C1483      H1487   1.111       .  S
C1483      H1488   1.110       .  S
C1483      H1489   1.110       .  S
C1486      H1490   1.110       .  S
C1486      H1491   1.110       .  S
C1486      H1492   1.111       .  S
C1493      C1494   1.405       .  A
C1493      C1498   1.407   1_655  A
C1493      H1500   1.084       .  S
C1494      C1495   1.418       .  A
C1495      C1496   1.403   1_655  A
C1495      C1502   1.509       .  S
C1496      C1497   1.403       .  A
C1496      H1501   1.084       .  S
C1497      C1498   1.416       .  A
C1498      C1499   1.508       .  S
C1499      H1503   1.111       .  S
C1499      H1504   1.111       .  S
C1499      H1505   1.110       .  S
C1502      H1506   1.110       .  S
C1502      H1507   1.110       .  S
C1502      H1508   1.111       .  S
C1509      C1510   1.405       .  A
C1509      C1514   1.405       .  A
C1509      H1516   1.084       .  S
C1510      C1511   1.419       .  A
C1511      C1512   1.402       .  A
C1511      C1518   1.509       .  S
C1512      C1513   1.405       .  A
C1512      H1517   1.084       .  S
C1513      C1514   1.418       .  A
C1514      C1515   1.508       .  S
C1515      H1519   1.111       .  S
C1515      H1520   1.110       .  S
C1515      H1521   1.110       .  S
C1518      H1522   1.110       .  S
C1518      H1523   1.110       .  S
C1518      H1524   1.111       .  S
C1525      C1530   1.405       .  A
C1525      C3146   1.405   1_554  A
C1525      H1532   1.083       .  S
C1526      C1527   1.420       .  A
C1526      C3145   1.405       .  A
C1527      C3148   1.403       .  A
C1527      C1534   1.509       .  S
C1528      C1529   1.403       .  A
C1528      C3147   1.403   1_554  A
C1528      H1533   1.084       .  S
C1529      C1530   1.416       .  A
C1530      C1531   1.507       .  S
C1531      H1535   1.111       .  S
C1531      H1536   1.110       .  S
C1531      H1537   1.110       .  S
C1534      H1538   1.110       .  S
C1534      H1539   1.110       .  S
C1534      H1540   1.111       .  S
C1541      C1542   1.405       .  A
C1541      C1546   1.402       .  A
C1541      H1548   1.084       .  S
C1542      C1543   1.420       .  A
C1543      C1544   1.408       .  A
C1543      C1550   1.507       .  S
C1544      C1545   1.403       .  A
C1544      H1549   1.085       .  S
C1545      C1546   1.415       .  A
C1546      C1547   1.510       .  S
C1547      H1551   1.111       .  S
C1547      H1552   1.111       .  S
C1547      H1553   1.110       .  S
C1550      H1554   1.111       .  S
C1550      H1555   1.111       .  S
C1550      H1556   1.109       .  S
C1557      C1562   1.405       .  A
C1557      C3178   1.404       .  A
C1557      H1564   1.084       .  S
C1558      C1559   1.419       .  A
C1558      C3177   1.404   1_554  A
C1559      C3180   1.403   1_554  A
C1559      C1566   1.509       .  S
C1560      C1561   1.403       .  A
C1560      C3179   1.403       .  A
C1560      H1565   1.084       .  S
C1561      C1562   1.419       .  A
C1562      C1563   1.508       .  S
C1563      H1567   1.111       .  S
C1563      H1568   1.111       .  S
C1563      H1569   1.110       .  S
C1566      H1570   1.109       .  S
C1566      H1571   1.109       .  S
C1566      H1572   1.111       .  S
C1573      C1574   1.399       .  A
C1573      C1578   1.401       .  A
C1573      H1580   1.084       .  S
C1574      C1575   1.413       .  A
C1575      C1576   1.405       .  A
C1575      C1582   1.508       .  S
C1576      C1577   1.407       .  A
C1576      H1581   1.084       .  S
C1577      C1578   1.421       .  A
C1578      C1579   1.509       .  S
C1579      H1583   1.111       .  S
C1579      H1584   1.110       .  S
C1579      H1585   1.110       .  S
C1582      H1586   1.110       .  S
C1582      H1587   1.110       .  S
C1582      H1588   1.111       .  S
C1589      C1590   1.407       .  A
C1589      C1594   1.407   1_565  A
C1589      H1596   1.084       .  S
C1590      C1591   1.418       .  A
C1591      C1592   1.407   1_565  A
C1591      C1598   1.508       .  S
C1592      C1593   1.405       .  A
C1592      H1597   1.084       .  S
C1593      C1594   1.416       .  A
C1594      C1595   1.507       .  S
C1595      H1599   1.111       .  S
C1595      H1600   1.111       .  S
C1595      H1601   1.110       .  S
C1598      H1602   1.110       .  S
C1598      H1603   1.110       .  S
C1598      H1604   1.111       .  S
C1605      C1606   1.407       .  A
C1605      C1610   1.405       .  A
C1605      H1612   1.084       .  S
C1606      C1607   1.419       .  A
C1607      C1608   1.405       .  A
C1607      C1614   1.508       .  S
C1608      C1609   1.405       .  A
C1608      H1613   1.084       .  S
C1609      C1610   1.416       .  A
C1610      C3231   1.508   1_554  S
C1611      C3230   1.508       .  S
C1611      H1615   1.111       .  S
C1611      H1616   1.110       .  S
C1611      H1617   1.109       .  S
C1614      H1618   1.110       .  S
C1614      H1619   1.110       .  S
C1614      H1620   1.111       .  S
In1621     O1623   2.242       .  S
In1621     O1624   2.229       .  S
In1621     O1632   2.259       .  S
In1621     O1626   2.262       .  S
In1621     O1628   2.258       .  S
In1621     O1629   2.246       .  S
In1621     O1630   2.229       .  S
In1621     O1633   2.253       .  S
C1622      O1628   1.265       .  A
C1622      O1630   1.258       .  A
C1622      C3178   1.487       .  S
O1623      C1631   1.262       .  A
O1624      C1631   1.261       .  A
C1625      O1632   1.259       .  A
C1625      O1626   1.259       .  A
C1625      C3210   1.492       .  S
C1627      O1629   1.258       .  A
C1627      O1633   1.260       .  A
C1627      C3226   1.490       .  S
C1631      C3194   1.475       .  S
In1634     O1636   2.245       .  S
In1634     O1637   2.235       .  S
In1634     O1645   2.251       .  S
In1634     O1639   2.259       .  S
In1634     O1641   2.255       .  S
In1634     O1642   2.243       .  S
In1634     O1643   2.235       .  S
In1634     O1646   2.255       .  S
C1635      O1641   1.264       .  A
C1635      O1643   1.257       .  A
C1635      C3130   1.488       .  S
O1636      C1644   1.261       .  A
O1637      C1644   1.262       .  A
C1638      O1645   1.260       .  A
C1638      O1639   1.261       .  A
C1638      C3213   1.490       .  S
C1640      O1642   1.261       .  A
C1640      O1646   1.259       .  A
C1640      C3162   1.491       .  S
C1644      C3149   1.485       .  S
In1647     O1649   2.236       .  S
In1647     O1650   2.248       .  S
In1647     O1658   2.242       .  S
In1647     O1652   2.249       .  S
In1647     O1654   2.240       .  S
In1647     O1655   2.237       .  S
In1647     O1656   2.229       .  S
In1647     O1659   2.241       .  S
C1648      O1654   1.262       .  A
C1648      O1656   1.260       .  A
C1648      C3101   1.485       .  S
O1649      C1657   1.260       .  A
O1650      C1657   1.263       .  A
C1651      O1658   1.260       .  A
C1651      O1652   1.260       .  A
C1651      C3117   1.484       .  S
C1653      O1655   1.262       .  A
C1653      O1659   1.259       .  A
C1653      C3082   1.481       .  S
C1657      C3066   1.485       .  S
In1660     O1662   2.248       .  S
In1660     O1663   2.229       .  S
In1660     O1671   2.236       .  S
In1660     O1665   2.264       .  S
In1660     O1667   2.255       .  S
In1660     O1668   2.230       .  S
In1660     O1669   2.228       .  S
In1660     O1672   2.247       .  S
C1661      O1667   1.265       .  A
C1661      O1669   1.258       .  A
C1661      C3146   1.488       .  S
O1662      C1670   1.262       .  A
O1663      C1670   1.260       .  A
C1664      O1671   1.257       .  A
C1664      O1665   1.262       .  A
C1664      C3114   1.487       .  S
C1666      O1668   1.261       .  A
C1666      O1672   1.261       .  A
C1666      C3133   1.488       .  S
C1670      C3050   1.487       .  S
In1673     O1675   2.251       .  S
In1673     O1676   2.235       .  S
In1673     O1684   2.243       .  S
In1673     O1678   2.260       .  S
In1673     O1680   2.248       .  S
In1673     O1681   2.226       .  S
In1673     O1682   2.234       .  S
In1673     O1685   2.250       .  S
C1674      O1680   1.262       .  A
C1674      O1682   1.260       .  A
C1674      C3002   1.487       .  S
O1675      C1683   1.262       .  A
O1676      C1683   1.261       .  A
C1677      O1684   1.258       .  A
C1677      O1678   1.261       .  A
C1677      C3034   1.484       .  S
C1679      O1681   1.259       .  A
C1679      O1685   1.260       .  A
C1679      C3018   1.481       .  S
C1683      C2986   1.485       .  S
In1686     O1688   2.253       .  S
In1686     O1689   2.242       .  S
In1686     O1697   2.253       .  S
In1686     O1691   2.257       .  S
In1686     O1693   2.257       .  S
In1686     O1694   2.240       .  S
In1686     O1695   2.232       .  S
In1686     O1698   2.243       .  S
C1687      O1693   1.262       .  A
C1687      O1695   1.259       .  A
C1687      C2938   1.488       .  S
O1688      C1696   1.264       .  A
O1689      C1696   1.261       .  A
C1690      O1697   1.259       .  A
C1690      O1691   1.258       .  A
C1690      C3037   1.491       .  S
C1692      O1694   1.261       .  A
C1692      O1698   1.259       .  A
C1692      C2954   1.487       .  S
C1696      C2973   1.492       .  S
In1699     O1701   2.251       .  S
In1699     O1702   2.236       .  S
In1699     O1710   2.235       .  S
In1699     O1704   2.257       .  S
In1699     O1706   2.252       .  S
In1699     O1707   2.243       .  S
In1699     O1708   2.227       .  S
In1699     O1711   2.237       .  S
C1700      O1706   1.265       .  A
C1700      O1708   1.259       .  A
C1700      C2957   1.486       .  S
O1701      C1709   1.261       .  A
O1702      C1709   1.260       .  A
C1703      O1710   1.257       .  A
C1703      O1704   1.262       .  A
C1703      C2909   1.483       .  S
C1705      O1707   1.262       .  A
C1705      O1711   1.262       .  A
C1705      C2925   1.486       .  S
C1709      C2941   1.480       .  S
In1712     O1714   2.243       .  S
In1712     O1715   2.232       .  S
In1712     O1723   2.240       .  S
In1712     O1717   2.258       .  S
In1712     O1719   2.268       .  S
In1712     O1720   2.238       .  S
In1712     O1721   2.230       .  S
In1712     O1724   2.250       .  S
C1713      O1719   1.263       .  A
C1713      O1721   1.256       .  A
C1713      C3085   1.491       .  S
O1714      C1722   1.262       .  A
O1715      C1722   1.259       .  A
C1716      O1723   1.260       .  A
C1716      O1717   1.260       .  A
C1716      C2906   1.487       .  S
C1718      O1720   1.259       .  A
C1718      O1724   1.263       .  A
C1718      C2893   1.488       .  S
C1722      C3098   1.483       .  S
In1725     O1727   2.248       .  S
In1725     O1728   2.227       .  S
In1725     O1736   2.229       .  S
In1725     O1730   2.252       .  S
In1725     O1732   2.260       .  S
In1725     O1733   2.241       .  S
In1725     O1734   2.212       .  S
In1725     O1737   2.256       .  S
C1726      O1732   1.264       .  A
C1726      O1734   1.257       .  A
C1726      C3021   1.485       .  S
O1727      C1735   1.262       .  A
O1728      C1735   1.260       .  A
C1729      O1736   1.258       .  A
C1729      O1730   1.263       .  A
C1729      C2858   1.485       .  S
C1731      O1733   1.260       .  A
C1731      O1737   1.260       .  A
C1731      C2874   1.488       .  S
C1735      C3005   1.481       .  S
In1738     O1740   2.252       .  S
In1738     O1741   2.230       .  S
In1738     O1749   2.239       .  S
In1738     O1743   2.256       .  S
In1738     O1745   2.256       .  S
In1738     O1746   2.244       .  S
In1738     O1747   2.234       .  S
In1738     O1750   2.255       .  S
C1739      O1745   1.262       .  A
C1739      O1747   1.259       .  A
C1739      C2826   1.488       .  S
O1740      C1748   1.262       .  A
O1741      C1748   1.262       .  A
C1742      O1749   1.258       .  A
C1742      O1743   1.261       .  A
C1742      C2861   1.483       .  S
C1744      O1746   1.260       .  A
C1744      O1750   1.259       .  A
C1744      C2842   1.490       .  S
C1748      C2810   1.489       .  S
In1751     O1753   2.238       .  S
In1751     O1754   2.240       .  S
In1751     O1762   2.232       .  S
In1751     O1756   2.261       .  S
In1751     O1758   2.275       .  S
In1751     O1759   2.236       .  S
In1751     O1760   2.211       .  S
In1751     O1763   2.248       .  S
C1752      O1758   1.265       .  A
C1752      O1760   1.256       .  A
C1752      C2813   1.488       .  S
O1753      C1761   1.260       .  A
O1754      C1761   1.262       .  A
C1755      O1762   1.257       .  A
C1755      O1756   1.263       .  A
C1755      C2778   1.488       .  S
C1757      O1759   1.260       .  A
C1757      O1763   1.263       .  A
C1757      C2829   1.490       .  S
C1761      C2794   1.485       .  S
In1764     O1766   2.243       .  S
In1764     O1767   2.255       .  S
In1764     O1775   2.237       .  S
In1764     O1769   2.248       .  S
In1764     O1771   2.257       .  S
In1764     O1772   2.240       .  S
In1764     O1773   2.214       .  S
In1764     O1776   2.241       .  S
C1765      O1771   1.264       .  A
C1765      O1773   1.257       .  A
C1765      C3197   1.486       .  S
O1766      C1774   1.260       .  A
O1767      C1774   1.263       .  A
C1768      O1775   1.260       .  A
C1768      O1769   1.259       .  A
C1768      C2781   1.483       .  S
C1770      O1772   1.263       .  A
C1770      O1776   1.260       .  A
C1770      C3181   1.487       .  S
C1774      C2762   1.492       .  S
In1777     O1779   2.240       .  S
In1777     O1780   2.240       .  S
In1777     O1788   2.245       .  S
In1777     O1782   2.250       .  S
In1777     O1784   2.258       .  S
In1777     O1785   2.253       .  S
In1777     O1786   2.216       .  S
In1777     O1789   2.236       .  S
C1778      O1784   1.265       .  A
C1778      O1786   1.258       .  A
C1778      C2714   1.487       .  S
O1779      C1787   1.259       .  A
O1780      C1787   1.262       .  A
C1781      O1788   1.259       .  A
C1781      O1782   1.259       .  A
C1781      C2749   1.487       .  S
C1783      O1785   1.263       .  A
C1783      O1789   1.260       .  A
C1783      C3165   1.482       .  S
C1787      C2733   1.482       .  S
In1790     O1792   2.241       .  S
In1790     O1793   2.234       .  S
In1790     O1801   2.235       .  S
In1790     O1795   2.242       .  S
In1790     O1797   2.254       .  S
In1790     O1798   2.240       .  S
In1790     O1799   2.213       .  S
In1790     O1802   2.228       .  S
C1791      O1797   1.265       .  A
C1791      O1799   1.258       .  A
C1791      C2682   1.483       .  S
O1792      C1800   1.259       .  A
O1793      C1800   1.262       .  A
C1794      O1801   1.259       .  A
C1794      O1795   1.261       .  A
C1794      C2746   1.476       .  S
C1796      O1798   1.265       .  A
C1796      O1802   1.261       .  A
C1796      C2669   1.484       .  S
C1800      C2701   1.479       .  S
In1803     O1805   2.251       .  S
In1803     O1806   2.243       .  S
In1803     O1814   2.251       .  S
In1803     O1808   2.252       .  S
In1803     O1810   2.251       .  S
In1803     O1811   2.239       .  S
In1803     O1812   2.225       .  S
In1803     O1815   2.242       .  S
C1804      O1810   1.264       .  A
C1804      O1812   1.258       .  A
C1804      C2698   1.487       .  S
O1805      C1813   1.262       .  A
O1806      C1813   1.260       .  A
C1807      O1814   1.259       .  A
C1807      O1808   1.259       .  A
C1807      C2634   1.486       .  S
C1809      O1811   1.261       .  A
C1809      O1815   1.259       .  A
C1813      C2650   1.490       .  S
In1816     O1819   2.253       .  S
In1816     O1827   2.242       .  S
In1816     O1821   2.266       .  S
In1816     O1824   2.251       .  S
In1816     O1828   2.250       .  S
C1817      O1823   1.265       .  A
C1817      O1825   1.259       .  A
C1817      C2618   1.489       .  S
O1818      C1826   1.260       .  A
C1820      O1827   1.257       .  A
C1820      O1821   1.261       .  A
C1820      C2637   1.486       .  S
C1822      O1824   1.261       .  A
C1822      O1828   1.260       .  A
C1822      C2602   1.487       .  S
C1826      C2970   1.490       .  S
In1829     O1831   2.245       .  S
In1829     O1832   2.236       .  S
In1829     O1840   2.242       .  S
In1829     O1834   2.259       .  S
In1829     O1836   2.250       .  S
In1829     O1837   2.237       .  S
In1829     O1838   2.232       .  S
In1829     O1841   2.241       .  S
C1830      O1836   1.265       .  A
C1830      O1838   1.259       .  A
C1830      C2605   1.489       .  S
O1831      C1839   1.259       .  A
O1832      C1839   1.260       .  A
C1833      O1840   1.258       .  A
C1833      O1834   1.261       .  A
C1833      C2586   1.491       .  S
C1835      O1837   1.260       .  A
C1835      O1841   1.262       .  A
C1835      C2922   1.486       .  S
C1839      C2621   1.483       .  S
In1842     O1844   2.229       .  S
In1842     O1845   2.250       .  S
In1842     O1853   2.233       .  S
In1842     O1847   2.270       .  S
In1842     O1849   2.258       .  S
In1842     O1850   2.252       .  S
In1842     O1851   2.224       .  S
In1842     O1854   2.225       .  S
C1843      O1849   1.267       .  A
C1843      O1851   1.259       .  A
C1843      C2557   1.490       .  S
O1844      C1852   1.261       .  A
O1845      C1852   1.262       .  A
C1846      O1853   1.257       .  A
C1846      O1847   1.261       .  A
C1846      C2589   1.483       .  S
C1848      O1850   1.265       .  A
C1848      O1854   1.259       .  A
C1848      C2570   1.477       .  S
C1852      C2538   1.485       .  S
In1855     O1857   2.253       .  S
In1855     O1858   2.267       .  S
In1855     O1866   2.252       .  S
In1855     O1860   2.247       .  S
In1855     O1862   2.237       .  S
In1855     O1863   2.237       .  S
In1855     O1864   2.244       .  S
In1855     O1867   2.249       .  S
C1856      O1862   1.261       .  A
C1856      O1864   1.262       .  A
C1856      C2541   1.487       .  S
O1857      C1865   1.258       .  A
O1858      C1865   1.260       .  A
C1859      O1866   1.259       .  A
C1859      O1860   1.259       .  A
C1859      C2506   1.477       .  S
C1861      O1863   1.263       .  A
C1861      O1867   1.261       .  A
C1865      C2522   1.492       .  S
In1868     O1871   2.258       .  S
In1868     O1879   2.239       .  S
In1868     O1873   2.263       .  S
In1868     O1876   2.250       .  S
In1868     O1880   2.251       .  S
C1869      O1875   1.264       .  A
C1869      O1877   1.262       .  A
C1869      C2490   1.487       .  S
O1870      C1878   1.259       .  A
C1872      O1879   1.258       .  A
C1872      O1873   1.261       .  A
C1872      C2509   1.486       .  S
C1874      O1876   1.261       .  A
C1874      O1880   1.260       .  A
C1874      C2474   1.486       .  S
C1878      C2797   1.486       .  S
In1881     O1883   2.264       .  S
In1881     O1884   2.233       .  S
In1881     O1892   2.252       .  S
In1881     O1886   2.255       .  S
In1881     O1888   2.252       .  S
In1881     O1889   2.255       .  S
In1881     O1890   2.235       .  S
In1881     O1893   2.248       .  S
C1882      O1888   1.264       .  A
C1882      O1890   1.260       .  A
C1882      C2477   1.485       .  S
O1883      C1891   1.264       .  A
O1884      C1891   1.259       .  A
C1885      O1892   1.258       .  A
C1885      O1886   1.259       .  A
C1885      C2458   1.483       .  S
C1887      O1889   1.260       .  A
C1887      O1893   1.257       .  A
C1887      C2845   1.483       .  S
C1891      C2493   1.493       .  S
In1894     O1896   2.248       .  S
In1894     O1897   2.222       .  S
In1894     O1905   2.233       .  S
In1894     O1899   2.259       .  S
In1894     O1901   2.261       .  S
In1894     O1902   2.246       .  S
In1894     O1903   2.223       .  S
In1894     O1906   2.236       .  S
C1895      O1901   1.265       .  A
C1895      O1903   1.258       .  A
C1895      C2426   1.487       .  S
O1896      C1904   1.264       .  A
O1897      C1904   1.260       .  A
C1898      O1905   1.256       .  A
C1898      O1899   1.261       .  A
C1898      C2461   1.484       .  S
C1900      O1902   1.259       .  A
C1900      O1906   1.260       .  A
C1900      C2442   1.477       .  S
C1904      C2410   1.482       .  S
In1907     O1910   2.254       .  S
In1907     O1918   2.239       .  S
In1907     O1912   2.251       .  S
In1907     O1915   2.227       .  S
In1907     O1919   2.254       .  S
C1908      O1914   1.265       .  A
C1908      O1916   1.259       .  A
C1908      C2730   1.487       .  S
O1909      C1917   1.260       .  A
C1911      O1918   1.259       .  A
C1911      O1912   1.259       .  A
C1911      C2394   1.486       .  S
C1913      O1915   1.260       .  A
C1913      O1919   1.261       .  A
C1913      C2717   1.480       .  S
C1917      C3053   1.487       .  S
In1920     O1922   2.242       .  S
In1920     O1923   2.246       .  S
In1920     O1931   2.240       .  S
In1920     O1925   2.255       .  S
In1920     O1927   2.250       .  S
In1920     O1928   2.245       .  S
In1920     O1929   2.230       .  S
In1920     O1932   2.243       .  S
C1921      O1927   1.263       .  A
C1921      O1929   1.260       .  A
C1921      C2413   1.488       .  S
O1922      C1930   1.263       .  A
O1923      C1930   1.265       .  A
C1924      O1931   1.257       .  A
C1924      O1925   1.259       .  A
C1924      C2397   1.479       .  S
C1926      O1928   1.262       .  A
C1926      O1932   1.257       .  A
C1930      C2378   1.489       .  S
In1933     O1935   2.258       .  S
In1933     O1936   2.224       .  S
In1933     O1944   2.237       .  S
In1933     O1938   2.255       .  S
In1933     O1940   2.262       .  S
In1933     O1941   2.231       .  S
In1933     O1942   2.232       .  S
In1933     O1945   2.240       .  S
C1934      O1940   1.263       .  A
C1934      O1942   1.257       .  A
C1934      C2349   1.491       .  S
O1935      C1943   1.262       .  A
O1936      C1943   1.261       .  A
C1937      O1944   1.257       .  A
C1937      O1938   1.262       .  A
C1937      C2362   1.483       .  S
C1939      O1941   1.260       .  A
C1939      O1945   1.262       .  A
C1939      C2445   1.485       .  S
In1946     O1948   2.247       .  S
In1946     O1949   2.226       .  S
In1946     O1957   2.238       .  S
In1946     O1951   2.260       .  S
In1946     O1954   2.248       .  S
C1947      O1953   1.266       .  A
C1947      O1955   1.257       .  A
C1947      C2314   1.490       .  S
O1948      C1956   1.261       .  A
O1949      C1956   1.262       .  A
C1950      O1957   1.259       .  A
C1950      O1951   1.261       .  A
C1950      C2365   1.488       .  S
C1952      O1958   1.261       .  A
C1952      C2877   1.484       .  S
C1956      C2298   1.485       .  S
In1959     O1961   2.252       .  S
In1959     O1962   2.247       .  S
In1959     O1970   2.259       .  S
In1959     O1964   2.257       .  S
In1959     O1966   2.254       .  S
In1959     O1967   2.237       .  S
In1959     O1968   2.240       .  S
In1959     O1971   2.242       .  S
C1960      O1966   1.264       .  A
C1960      O1968   1.261       .  A
C1960      C2253   1.488       .  S
O1961      C1969   1.258       .  A
O1962      C1969   1.260       .  A
C1963      O1970   1.259       .  A
C1963      O1964   1.260       .  A
C1963      C2282   1.487       .  S
C1965      O1967   1.262       .  A
C1965      O1971   1.261       .  A
C1965      C2266   1.480       .  S
C1969      C3069   1.485       .  S
In1972     O1974   2.253       .  S
In1972     O1975   2.247       .  S
In1972     O1983   2.242       .  S
In1972     O1977   2.264       .  S
In1972     O1979   2.264       .  S
In1972     O1980   2.236       .  S
In1972     O1981   2.220       .  S
In1972     O1984   2.246       .  S
C1973      O1979   1.265       .  A
C1973      O1981   1.257       .  A
C1973      C2333   1.489       .  S
O1974      C1982   1.260       .  A
O1975      C1982   1.260       .  A
C1976      O1983   1.260       .  A
C1976      O1977   1.261       .  A
C1976      C2285   1.490       .  S
C1978      O1980   1.262       .  A
C1978      O1984   1.261       .  A
C1978      C2346   1.480       .  S
C1982      C2381   1.489       .  S
In1985     O1987   2.247       .  S
In1985     O1988   2.238       .  S
In1985     O1996   2.234       .  S
In1985     O1990   2.258       .  S
In1985     O1992   2.253       .  S
In1985     O1993   2.248       .  S
In1985     O1994   2.216       .  S
In1985     O1997   2.243       .  S
C1986      O1992   1.265       .  A
C1986      O1994   1.259       .  A
C1986      C2301   1.479       .  S
O1987      C1995   1.261       .  A
O1988      C1995   1.263       .  A
C1989      O1996   1.258       .  A
C1989      O1990   1.262       .  A
C1989      C2234   1.484       .  S
C1991      O1993   1.262       .  A
C1991      O1997   1.259       .  A
C1991      C2317   1.483       .  S
C1995      C2989   1.487       .  S
In1998     O2000   2.252       .  S
In1998     O2001   2.241       .  S
In1998     O2009   2.235       .  S
In1998     O2003   2.261       .  S
In1998     O2005   2.256       .  S
In1998     O2006   2.250       .  S
In1998     O2007   2.225       .  S
In1998     O2010   2.244       .  S
C1999      O2005   1.264       .  A
C1999      O2007   1.258       .  A
C1999      C2202   1.487       .  S
O2000      C2008   1.262       .  A
O2001      C2008   1.261       .  A
C2002      O2009   1.259       .  A
C2002      O2003   1.260       .  A
C2002      C2237   1.485       .  S
C2004      O2006   1.260       .  A
C2004      O2010   1.261       .  A
C2004      C2218   1.486       .  S
C2008      C2653   1.490       .  S
In2011     O2013   2.255       .  S
In2011     O2014   2.243       .  S
In2011     O2022   2.234       .  S
In2011     O2016   2.252   1_556  S
In2011     O2019   2.242       .  S
C2012      O2018   1.263       .  A
C2012      O2020   1.258       .  A
C2012      C2170   1.483       .  S
O2013      C2021   1.259       .  A
O2014      C2021   1.261       .  A
C2015      O2022   1.260       .  A
C2015      O2016   1.259   1_556  A
C2015      C2186   1.486       .  S
C2017      O2023   1.262       .  A
C2017      C3229   1.487       .  S
C2021      C2154   1.486       .  S
In2024     O2026   2.238       .  S
In2024     O2027   2.236       .  S
In2024     O2035   2.235       .  S
In2024     O2029   2.255       .  S
In2024     O2031   2.241       .  S
In2024     O2032   2.241       .  S
In2024     O2033   2.238       .  S
In2024     O2036   2.234       .  S
C2025      O2031   1.263       .  A
C2025      O2033   1.261       .  A
C2025      C2221   1.489       .  S
O2026      C2034   1.260   1_556  A
O2027      C2034   1.263   1_556  A
C2028      O2035   1.258       .  A
C2028      O2029   1.261       .  A
C2028      C2189   1.476       .  S
C2030      O2032   1.265       .  A
C2030      O2036   1.261       .  A
C2030      C2666   1.488       .  S
In2037     O2039   2.259       .  S
In2037     O2040   2.248       .  S
In2037     O2048   2.240       .  S
In2037     O2042   2.266       .  S
In2037     O2045   2.251   1_556  S
C2038      O2044   1.265       .  A
C2038      O2046   1.260       .  A
C2038      C2269   1.482       .  S
O2039      C2047   1.262       .  A
O2040      C2047   1.259       .  A
C2041      O2048   1.258       .  A
C2041      O2042   1.261       .  A
C2041      C2141   1.484       .  S
C2043      O2049   1.260       .  A
C2043      C2890   1.479       .  S
C2047      C2250   1.488       .  S
In2050     O2052   2.249       .  S
In2050     O2053   2.237       .  S
In2050     O2061   2.249       .  S
In2050     O2055   2.247       .  S
In2050     O2057   2.254       .  S
In2050     O2058   2.238       .  S
In2050     O2059   2.237       .  S
In2050     O2062   2.256       .  S
C2051      O2057   1.262       .  A
C2051      O2059   1.260       .  A
C2051      C2122   1.489       .  S
O2052      C2060   1.261   1_556  A
O2053      C2060   1.262   1_556  A
C2054      O2061   1.259       .  A
C2054      O2055   1.260       .  A
C2054      C2138   1.477       .  S
C2056      O2058   1.259       .  A
C2056      O2062   1.258       .  A
C2056      C2573   1.487       .  S
In2063     O2065   2.250       .  S
In2063     O2066   2.247       .  S
In2063     O2074   2.231       .  S
In2063     O2068   2.270       .  S
In2063     O2070   2.261       .  S
In2063     O2071   2.250       .  S
In2063     O2072   2.221       .  S
In2063     O2075   2.245       .  S
C2064      O2070   1.266       .  A
C2064      O2072   1.258       .  A
C2064      C2109   1.491       .  S
O2065      C2073   1.262       .  A
O2066      C2073   1.262       .  A
C2067      O2074   1.257       .  A
C2067      O2068   1.262       .  A
C2067      C2090   1.491       .  S
C2069      O2071   1.261       .  A
C2069      O2075   1.261       .  A
C2069      C2125   1.486       .  S
C2073      C2525   1.490       .  S
In2076     O2078   2.243       .  S
In2076     O2079   2.251       .  S
In2076     O2087   2.228       .  S
In2076     O2081   2.275       .  S
In2076     O2083   2.260       .  S
In2076     O2084   2.232       .  S
In2076     O2085   2.226       .  S
In2076     O2088   2.245       .  S
C2077      O2083   1.265       .  A
C2077      O2085   1.258       .  A
C2077      C2157   1.490       .  S
O2078      C2086   1.260       .  A
O2079      C2086   1.263       .  A
C2080      O2087   1.257       .  A
C2080      O2081   1.261       .  A
C2080      C2093   1.487       .  S
C2082      O2084   1.261       .  A
C2082      O2088   1.261       .  A
C2082      C2173   1.483       .  S
C2086      C2765   1.487       .  S
C2089      C2090   1.409       .  A
C2089      C2094   1.410       .  A
C2089      H2096   1.083       .  S
C2090      C2091   1.419       .  A
C2091      C2092   1.401       .  A
C2091      C2098   1.509       .  S
C2092      C2093   1.402       .  A
C2092      H2097   1.084       .  S
C2093      C2094   1.416       .  A
C2094      C2095   1.507       .  S
C2095      H2099   1.111       .  S
C2095      H2100   1.110       .  S
C2095      H2101   1.110       .  S
C2098      H2102   1.110       .  S
C2098      H2103   1.110       .  S
C2098      H2104   1.111       .  S
C2105      C2106   1.404       .  A
C2105      C2110   1.403       .  A
C2105      H2112   1.084       .  S
C2106      C2107   1.418       .  A
C2107      C2108   1.407       .  A
C2107      C2114   1.507       .  S
C2108      C2109   1.405       .  A
C2108      H2113   1.084       .  S
C2109      C2110   1.420       .  A
C2110      C2111   1.510       .  S
C2111      H2115   1.111       .  S
C2111      H2116   1.110       .  S
C2111      H2117   1.110       .  S
C2114      H2118   1.110       .  S
C2114      H2120   1.111       .  S
C2121      C2122   1.406       .  A
C2121      C2126   1.404       .  A
C2121      H2128   1.084       .  S
C2122      C2123   1.417       .  A
C2123      C2124   1.405       .  A
C2123      C2130   1.508       .  S
C2124      C2125   1.405       .  A
C2124      H2129   1.084       .  S
C2125      C2126   1.415       .  A
C2126      C2127   1.508       .  S
C2127      H2131   1.111       .  S
C2127      H2132   1.110       .  S
C2127      H2133   1.110       .  S
C2130      H2134   1.110       .  S
C2130      H2135   1.111       .  S
C2130      H2136   1.111       .  S
C2137      C2138   1.401       .  A
C2137      C2142   1.404       .  A
C2137      H2144   1.084       .  S
C2138      C2139   1.413       .  A
C2139      C2140   1.407       .  A
C2140      C2141   1.405       .  A
C2141      C2142   1.417       .  A
C2142      C2143   1.508       .  S
C2143      H2147   1.111       .  S
C2143      H2148   1.111       .  S
C2143      H2149   1.109       .  S
C2146      H2150   1.111       .  S
C2146      H2151   1.110       .  S
C2146      H2152   1.111       .  S
C2153      C2154   1.402       .  A
C2153      C2158   1.403       .  A
C2153      H2160   1.084       .  S
C2154      C2155   1.417       .  A
C2155      C2156   1.407       .  A
C2155      C2162   1.507       .  S
C2156      C2157   1.406       .  A
C2156      H2161   1.083       .  S
C2157      C2158   1.421       .  A
C2158      C2159   1.509       .  S
C2159      H2163   1.111       .  S
C2159      H2164   1.110       .  S
C2159      H2165   1.110       .  S
C2162      H2166   1.110       .  S
C2162      H2167   1.111       .  S
C2162      H2168   1.111       .  S
C2169      C2170   1.404       .  A
C2169      C2174   1.403       .  A
C2169      H2176   1.084       .  S
C2170      C2171   1.418       .  A
C2171      C2172   1.402       .  A
C2171      C2178   1.509       .  S
C2172      C2173   1.404       .  A
C2172      H2177   1.084       .  S
C2173      C2174   1.417       .  A
C2174      C2175   1.508       .  S
C2175      H2179   1.111       .  S
C2175      H2180   1.110       .  S
C2175      H2181   1.110       .  S
C2178      H2182   1.110       .  S
C2178      H2183   1.110       .  S
C2178      H2184   1.111       .  S
C2185      C2186   1.405       .  A
C2185      C2190   1.401       .  A
C2185      H2192   1.084       .  S
C2186      C2187   1.420       .  A
C2187      C2188   1.406       .  A
C2187      C2194   1.508   1_556  S
C2188      C2189   1.402       .  A
C2188      H2193   1.084       .  S
C2189      C2190   1.412       .  A
C2190      C2191   1.508       .  S
C2191      H2197   1.111       .  S
C2194      H2198   1.110       .  S
C2194      H2199   1.110   1_554  S
C2194      H2200   1.111       .  S
C2201      C2202   1.406       .  A
C2201      C2206   1.405       .  A
C2201      H2208   1.083       .  S
C2202      C2203   1.420       .  A
C2203      C2204   1.402       .  A
C2203      C2210   1.509       .  S
C2204      C2205   1.401       .  A
C2204      H2209   1.084       .  S
C2205      C2206   1.416       .  A
C2207      H2211   1.111       .  S
C2207      H2212   1.110       .  S
C2207      H2213   1.111   1_554  S
C2210      H2214   1.110       .  S
C2210      H2215   1.111       .  S
C2210      H2216   1.111       .  S
C2217      C2218   1.404       .  A
C2217      C2222   1.403       .  A
C2217      H2224   1.084       .  S
C2218      C2219   1.416       .  A
C2219      C2220   1.406       .  A
C2219      C2226   1.508       .  S
C2220      C2221   1.408       .  A
C2220      H2225   1.084       .  S
C2221      C2222   1.417       .  A
C2222      C2223   1.508       .  S
C2223      H2227   1.111       .  S
C2223      H2228   1.110       .  S
C2223      H2229   1.110       .  S
C2226      H2230   1.110       .  S
C2226      H2231   1.109       .  S
C2226      H2232   1.111       .  S
C2233      C2234   1.405       .  A
C2233      C2238   1.407       .  A
C2233      H2240   1.084       .  S
C2234      C2235   1.416       .  A
C2235      C2236   1.401       .  A
C2235      C2242   1.509       .  S
C2236      C2237   1.403       .  A
C2236      H2241   1.084       .  S
C2237      C2238   1.417       .  A
C2238      C2239   1.507       .  S
C2239      H2243   1.111       .  S
C2239      H2244   1.110       .  S
C2239      H2245   1.110       .  S
C2242      H2246   1.111       .  S
C2242      H2247   1.109       .  S
C2242      H2248   1.111       .  S
C2249      C2250   1.404       .  A
C2249      C2254   1.406       .  A
C2249      H2256   1.085       .  S
C2250      C2251   1.417       .  A
C2251      C2252   1.406       .  A
C2251      C2258   1.508       .  S
C2252      C2253   1.406       .  A
C2252      H2257   1.085       .  S
C2253      C2254   1.416       .  A
C2254      C2255   1.507       .  S
C2255      H2259   1.111       .  S
C2255      H2260   1.111       .  S
C2255      H2261   1.110       .  S
C2258      H2262   1.109       .  S
C2258      H2263   1.111       .  S
C2258      H2264   1.111       .  S
C2265      C2266   1.403       .  A
C2265      C2270   1.404       .  A
C2265      H2272   1.084       .  S
C2266      C2267   1.415       .  A
C2267      C2268   1.405       .  A
C2267      C2274   1.508       .  S
C2268      C2269   1.404       .  A
C2268      H2273   1.084       .  S
C2269      C2270   1.416       .  A
C2270      C2271   1.508       .  S
C2271      H2275   1.111       .  S
C2271      H2276   1.109       .  S
C2271      H2277   1.111       .  S
C2274      H2278   1.111       .  S
C2274      H2279   1.110       .  S
C2274      H2280   1.111       .  S
C2281      C2282   1.406       .  A
C2281      C2286   1.409       .  A
C2281      H2288   1.084       .  S
C2282      C2283   1.414       .  A
C2283      C2284   1.404       .  A
C2283      C2290   1.508       .  S
C2284      C2285   1.406       .  A
C2284      H2289   1.084       .  S
C2285      C2286   1.418       .  A
C2286      C2287   1.507       .  S
C2287      H2291   1.111       .  S
C2287      H2292   1.110       .  S
C2287      H2293   1.110       .  S
C2290      H2294   1.110       .  S
C2290      H2295   1.111       .  S
C2290      H2296   1.111       .  S
C2297      C2298   1.404       .  A
C2297      C2302   1.399       .  A
C2297      H2304   1.083       .  S
C2298      C2299   1.418       .  A
C2299      C2300   1.406       .  A
C2299      C2306   1.507       .  S
C2300      C2301   1.403       .  A
C2300      H2305   1.084       .  S
C2301      C2302   1.415       .  A
C2302      C2303   1.510       .  S
C2303      H2307   1.111       .  S
C2303      H2308   1.109       .  S
C2303      H2309   1.111       .  S
C2306      H2310   1.110       .  S
C2306      H2311   1.110       .  S
C2306      H2312   1.111       .  S
C2313      C2314   1.406       .  A
C2313      C2318   1.406       .  A
C2313      H2320   1.083       .  S
C2314      C2315   1.422       .  A
C2315      C2316   1.404       .  A
C2315      C2322   1.509       .  S
C2316      C2317   1.401       .  A
C2316      H2321   1.084       .  S
C2317      C2318   1.416       .  A
C2318      C2319   1.508       .  S
C2319      H2323   1.111       .  S
C2319      H2324   1.111       .  S
C2319      H2325   1.110       .  S
C2322      H2326   1.110       .  S
C2322      H2327   1.111       .  S
C2322      H2328   1.111       .  S
C2329      C2330   1.403       .  A
C2329      C2334   1.401       .  A
C2329      H2336   1.084       .  S
C2330      C2331   1.417       .  A
C2331      C2332   1.408       .  A
C2331      C2338   1.507       .  S
C2332      C2333   1.406       .  A
C2332      H2337   1.084       .  S
C2333      C2334   1.420       .  A
C2334      C2335   1.510       .  S
C2335      H2339   1.111       .  S
C2335      H2340   1.110       .  S
C2335      H2341   1.110       .  S
C2338      H2342   1.110       .  S
C2338      H2343   1.110       .  S
C2338      H2344   1.111       .  S
C2345      C2346   1.400       .  A
C2345      C2350   1.403       .  A
C2345      H2352   1.084       .  S
C2346      C2347   1.414       .  A
C2347      C2348   1.406       .  A
C2347      C2354   1.508       .  S
C2348      C2349   1.407       .  A
C2348      H2353   1.084       .  S
C2349      C2350   1.421       .  A
C2350      C2351   1.509       .  S
C2351      H2355   1.111       .  S
C2351      H2356   1.110       .  S
C2351      H2357   1.110       .  S
C2354      H2358   1.111       .  S
C2354      H2359   1.110       .  S
C2354      H2360   1.111       .  S
C2361      C2362   1.404       .  A
C2361      C2366   1.405       .  A
C2361      H2368   1.084       .  S
C2362      C2363   1.416       .  A
C2363      C2364   1.403       .  A
C2363      C2370   1.509       .  S
C2364      C2365   1.406       .  A
C2364      H2369   1.084       .  S
C2365      C2366   1.417       .  A
C2366      C2367   1.507       .  S
C2367      H2371   1.111       .  S
C2367      H2373   1.110       .  S
C2370      H2374   1.109       .  S
C2370      H2375   1.111       .  S
C2370      H2376   1.111       .  S
C2377      C2378   1.404       .  A
C2377      C2382   1.406   1_655  A
C2377      H2384   1.084       .  S
C2378      C2379   1.418       .  A
C2379      C2380   1.405   1_655  A
C2379      C2386   1.508       .  S
C2380      C2381   1.405       .  A
C2380      H2385   1.084       .  S
C2381      C2382   1.418       .  A
C2382      C2383   1.508       .  S
C2383      H2387   1.111       .  S
C2383      H2388   1.110       .  S
C2383      H2389   1.110       .  S
C2386      H2390   1.110       .  S
C2386      H2391   1.111       .  S
C2386      H2392   1.111       .  S
C2393      C2394   1.406       .  A
C2393      C2398   1.402       .  A
C2393      H2400   1.084       .  S
C2394      C2395   1.418       .  A
C2395      C2396   1.405       .  A
C2395      C2402   1.508       .  S
C2396      C2397   1.403       .  A
C2396      H2401   1.084       .  S
C2397      C2398   1.413       .  A
C2398      C2399   1.508       .  S
C2399      H2403   1.111       .  S
C2399      H2404   1.111       .  S
C2399      H2405   1.109       .  S
C2402      H2406   1.110       .  S
C2402      H2408   1.111       .  S
C2409      C2410   1.404       .  A
C2409      C2414   1.405       .  A
C2409      H2416   1.084       .  S
C2410      C2411   1.416       .  A
C2411      C2412   1.402       .  A
C2411      C2418   1.509       .  S
C2412      C2413   1.406       .  A
C2412      H2417   1.084       .  S
C2413      C2414   1.418       .  A
C2414      C2415   1.507       .  S
C2415      H2419   1.111       .  S
C2415      H2420   1.110       .  S
C2415      H2421   1.110       .  S
C2418      H2422   1.109       .  S
C2418      H2423   1.111       .  S
C2418      H2424   1.111       .  S
C2425      C2426   1.405       .  A
C2425      C2430   1.406       .  A
C2425      H2432   1.083       .  S
C2426      C2427   1.419       .  A
C2427      C2428   1.402       .  A
C2427      C2434   1.509       .  S
C2428      C2429   1.403       .  A
C2428      H2433   1.083       .  S
C2429      C2430   1.419       .  A
C2431      H2436   1.110       .  S
C2431      H2437   1.110       .  S
C2434      H2438   1.110       .  S
C2434      H2439   1.110       .  S
C2434      H2440   1.111       .  S
C2441      C2442   1.402       .  A
C2441      C2446   1.401   1_655  A
C2441      H2448   1.084       .  S
C2442      C2443   1.413       .  A
C2443      C2444   1.403   1_655  A
C2443      C2450   1.507       .  S
C2444      C2445   1.407       .  A
C2444      H2449   1.084       .  S
C2445      C2446   1.418       .  A
C2446      C2447   1.509       .  S
C2447      H2451   1.111   1_455  S
C2447      H2452   1.110       .  S
C2447      H2453   1.110       .  S
C2450      H2454   1.110       .  S
C2450      H2455   1.109       .  S
C2450      H2456   1.111   1_655  S
C2457      C2458   1.403       .  A
C2457      C2462   1.404       .  A
C2457      H2464   1.083       .  S
C2458      C2459   1.415       .  A
C2459      C2460   1.405       .  A
C2459      C2466   1.507       .  S
C2460      C2461   1.404       .  A
C2460      H2465   1.083       .  S
C2461      C2462   1.418       .  A
C2462      C2463   1.509       .  S
C2463      H2467   1.111       .  S
C2463      H2468   1.111       .  S
C2463      H2469   1.110       .  S
C2466      H2470   1.111       .  S
C2466      H2471   1.110       .  S
C2466      H2472   1.111       .  S
C2473      C2474   1.404       .  A
C2473      C2478   1.405       .  A
C2473      H2480   1.084       .  S
C2474      C2475   1.417       .  A
C2475      C2476   1.405       .  A
C2475      C2482   1.508       .  S
C2476      C2477   1.404       .  A
C2476      H2481   1.084       .  S
C2477      C2478   1.416       .  A
C2478      C2479   1.508       .  S
C2479      H2483   1.111       .  S
C2479      H2484   1.109       .  S
C2479      H2485   1.111       .  S
C2482      H2486   1.111       .  S
C2482      H2487   1.110       .  S
C2482      H2488   1.111       .  S
C2489      C2490   1.403       .  A
C2489      C2494   1.402       .  A
C2489      H2496   1.085       .  S
C2490      C2491   1.416       .  A
C2491      C2492   1.408       .  A
C2491      C2498   1.507       .  S
C2492      C2493   1.408       .  A
C2492      H2497   1.084       .  S
C2493      C2494   1.420       .  A
C2494      C2495   1.509       .  S
C2495      H2499   1.111       .  S
C2495      H2500   1.110       .  S
C2495      H2501   1.110       .  S
C2498      H2502   1.109       .  S
C2498      H2503   1.110       .  S
C2498      H2504   1.111       .  S
C2505      C2506   1.400       .  A
C2505      C2510   1.403       .  A
C2505      H2512   1.084       .  S
C2506      C2507   1.413       .  A
C2507      C2508   1.407       .  A
C2508      C2509   1.407       .  A
C2509      C2510   1.418       .  A
C2510      C2511   1.508       .  S
C2511      H2515   1.111       .  S
C2511      H2516   1.110       .  S
C2511      H2517   1.110       .  S
C2514      H2518   1.110       .  S
C2514      H2519   1.111       .  S
C2514      H2520   1.111       .  S
C2521      C2522   1.407       .  A
C2521      C2526   1.406       .  A
C2521      H2528   1.084       .  S
C2522      C2523   1.417       .  A
C2523      C2524   1.407       .  A
C2523      C2530   1.507       .  S
C2524      C2525   1.407       .  A
C2524      H2529   1.084       .  S
C2525      C2526   1.416       .  A
C2526      C2527   1.508       .  S
C2527      H2531   1.111       .  S
C2527      H2532   1.109       .  S
C2527      H2533   1.110       .  S
C2530      H2534   1.109       .  S
C2530      H2535   1.110       .  S
C2530      H2536   1.111       .  S
C2537      C2538   1.404       .  A
C2537      C2542   1.402       .  A
C2537      H2544   1.084       .  S
C2538      C2539   1.415       .  A
C2539      C2540   1.405       .  A
C2539      C2546   1.507       .  S
C2540      C2541   1.407       .  A
C2540      H2545   1.084       .  S
C2541      C2542   1.418       .  A
C2542      C2543   1.509       .  S
C2543      H2547   1.111       .  S
C2543      H2548   1.110       .  S
C2543      H2549   1.110       .  S
C2546      H2550   1.109       .  S
C2546      H2551   1.110       .  S
C2546      H2552   1.111       .  S
C2553      C2554   1.402       .  A
C2553      C2558   1.403       .  A
C2553      H2560   1.084       .  S
C2554      C2555   1.417       .  A
C2555      C2556   1.407       .  A
C2555      C2562   1.507       .  S
C2556      C2557   1.406       .  A
C2556      H2561   1.083       .  S
C2557      C2558   1.420       .  A
C2558      C2559   1.509       .  S
C2559      H2563   1.111       .  S
C2559      H2564   1.109       .  S
C2559      H2565   1.111       .  S
C2562      H2567   1.110   1_556  S
C2562      H2568   1.111       .  S
C2569      C2570   1.402       .  A
C2569      C2574   1.407       .  A
C2569      H2576   1.085       .  S
C2570      C2571   1.415       .  A
C2571      C2572   1.400       .  A
C2571      C2578   1.510       .  S
C2572      C2573   1.405       .  A
C2572      H2577   1.084       .  S
C2573      C2574   1.420       .  A
C2574      C2575   1.507       .  S
C2575      H2579   1.111       .  S
C2575      H2580   1.110       .  S
C2575      H2581   1.111       .  S
C2578      H2582   1.111       .  S
C2578      H2583   1.109       .  S
C2578      H2584   1.111       .  S
C2585      C2586   1.408       .  A
C2585      C2590   1.407       .  A
C2585      H2592   1.084       .  S
C2586      C2587   1.420       .  A
C2587      C2588   1.403       .  A
C2587      C2594   1.509       .  S
C2588      C2589   1.402       .  A
C2588      H2593   1.084       .  S
C2589      C2590   1.413       .  A
C2590      C2591   1.507       .  S
C2591      H2595   1.111       .  S
C2591      H2596   1.109       .  S
C2591      H2597   1.111       .  S
C2594      H2598   1.110       .  S
C2594      H2599   1.110       .  S
C2594      H2600   1.111       .  S
C2601      C2602   1.403       .  A
C2601      C2606   1.405       .  A
C2601      H2608   1.084       .  S
C2602      C2603   1.417       .  A
C2603      C2604   1.404       .  A
C2603      C2610   1.508       .  S
C2604      C2605   1.404       .  A
C2604      H2609   1.084       .  S
C2605      C2606   1.420       .  A
C2606      C2607   1.509       .  S
C2607      H2611   1.111       .  S
C2607      H2612   1.110       .  S
C2607      H2613   1.111       .  S
C2610      H2614   1.110       .  S
C2610      H2615   1.110       .  S
C2610      H2616   1.111       .  S
C2617      C2618   1.406       .  A
C2617      C2622   1.406       .  A
C2617      H2624   1.084       .  S
C2618      C2619   1.420       .  A
C2619      C2620   1.402       .  A
C2619      C2626   1.509       .  S
C2620      C2621   1.401       .  A
C2620      H2625   1.084       .  S
C2621      C2622   1.417       .  A
C2622      C2623   1.508       .  S
C2623      H2627   1.111       .  S
C2623      H2628   1.110       .  S
C2623      H2629   1.111       .  S
C2626      H2630   1.110       .  S
C2626      H2631   1.110       .  S
C2626      H2632   1.111       .  S
C2633      C2634   1.404       .  A
C2633      C2638   1.404       .  A
C2633      H2640   1.084       .  S
C2634      C2635   1.417       .  A
C2635      C2636   1.407       .  A
C2636      C2637   1.404       .  A
C2637      C2638   1.417       .  A
C2638      C2639   1.508       .  S
C2639      H2643   1.111       .  S
C2639      H2644   1.111       .  S
C2639      H2645   1.109       .  S
C2642      H2646   1.111       .  S
C2642      H2648   1.111       .  S
C2649      C2650   1.406       .  A
C2649      C2654   1.405   1_545  A
C2649      H2656   1.084       .  S
C2650      C2651   1.418   1_545  A
C2651      C2652   1.406       .  A
C2651      C2658   1.508       .  S
C2652      C2653   1.406       .  A
C2652      H2657   1.084       .  S
C2653      C2654   1.417       .  A
C2654      C2655   1.508       .  S
C2655      H2659   1.111   1_565  S
C2655      H2660   1.109       .  S
C2655      H2661   1.110       .  S
C2658      H2662   1.109   1_565  S
C2658      H2663   1.110   1_565  S
C2658      H2664   1.111       .  S
C2665      C2666   1.404       .  A
C2665      C2670   1.403   1_565  A
C2665      H2672   1.084       .  S
C2666      C2667   1.420       .  A
C2667      C2668   1.405       .  A
C2667      C2674   1.508       .  S
C2668      C2669   1.403   1_565  A
C2668      H2673   1.084   1_565  S
C2669      C2670   1.418       .  A
C2670      C2671   1.509       .  S
C2671      H2675   1.111       .  S
C2671      H2676   1.111       .  S
C2671      H2677   1.110       .  S
C2674      H2678   1.110       .  S
C2674      H2679   1.110       .  S
C2674      H2680   1.111       .  S
C2681      C2682   1.403       .  A
C2681      C2686   1.406       .  A
C2681      H2688   1.084       .  S
C2682      C2683   1.418       .  A
C2683      C2684   1.400       .  A
C2683      C2690   1.510       .  S
C2684      C2685   1.404       .  A
C2684      H2689   1.084       .  S
C2685      C2686   1.419       .  A
C2686      C2687   1.508       .  S
C2687      H2691   1.111       .  S
C2687      H2692   1.110   1_556  S
C2687      H2693   1.110       .  S
C2690      H2694   1.111       .  S
C2690      H2695   1.110       .  S
C2690      H2696   1.111       .  S
C2697      C2698   1.406       .  A
C2697      C2702   1.404       .  A
C2697      H2704   1.083       .  S
C2698      C2699   1.420       .  A
C2699      C2700   1.401       .  A
C2699      C2706   1.509       .  S
C2700      C2701   1.401       .  A
C2700      H2705   1.084       .  S
C2701      C2702   1.416       .  A
C2702      C2703   1.508       .  S
C2703      H2707   1.111       .  S
C2703      H2708   1.110       .  S
C2703      H2709   1.111       .  S
C2706      H2710   1.110       .  S
C2706      H2711   1.110       .  S
C2706      H2712   1.111       .  S
C2713      C2714   1.407       .  A
C2713      C2718   1.406       .  A
C2713      H2720   1.083       .  S
C2714      C2715   1.420       .  A
C2715      C2716   1.400       .  A
C2715      C2722   1.509       .  S
C2716      C2717   1.400       .  A
C2716      H2721   1.084       .  S
C2717      C2718   1.415       .  A
C2718      C2719   1.507       .  S
C2719      H2723   1.111       .  S
C2719      H2724   1.111       .  S
C2719      H2725   1.110       .  S
C2722      H2726   1.110       .  S
C2722      H2727   1.111       .  S
C2722      H2728   1.111       .  S
C2729      C2730   1.406       .  A
C2729      C2734   1.405       .  A
C2729      H2736   1.083       .  S
C2730      C2731   1.420       .  A
C2731      C2732   1.402       .  A
C2731      C2738   1.509       .  S
C2732      C2733   1.401       .  A
C2732      H2737   1.084       .  S
C2733      C2734   1.417       .  A
C2734      C2735   1.508       .  S
C2735      H2739   1.111       .  S
C2735      H2740   1.110       .  S
C2735      H2741   1.111       .  S
C2738      H2742   1.110       .  S
C2738      H2743   1.110       .  S
C2738      H2744   1.111       .  S
C2745      C2746   1.401       .  A
C2745      C2750   1.404       .  A
C2745      H2752   1.084       .  S
C2746      C2747   1.413       .  A
C2747      C2748   1.403       .  A
C2747      C2754   1.509       .  S
C2748      C2749   1.407       .  A
C2748      H2753   1.084       .  S
C2749      C2750   1.419       .  A
C2750      C2751   1.507       .  S
C2751      H2755   1.111       .  S
C2751      H2756   1.110       .  S
C2751      H2757   1.110       .  S
C2754      H2758   1.109       .  S
C2754      H2759   1.111       .  S
C2754      H2760   1.111       .  S
C2761      C2762   1.406       .  A
C2761      C2766   1.406       .  A
C2761      H2768   1.084       .  S
C2762      C2763   1.420       .  A
C2763      C2764   1.406       .  A
C2763      C2770   1.508       .  S
C2764      C2765   1.403       .  A
C2764      H2769   1.084       .  S
C2765      C2766   1.417       .  A
C2766      C2767   1.509       .  S
C2767      H2771   1.111       .  S
C2767      H2772   1.110       .  S
C2767      H2773   1.111       .  S
C2770      H2774   1.110       .  S
C2770      H2775   1.110       .  S
C2770      H2776   1.111       .  S
C2777      C2778   1.406       .  A
C2777      C2782   1.406       .  A
C2777      H2784   1.084       .  S
C2778      C2779   1.420       .  A
C2779      C2780   1.402       .  A
C2779      C2786   1.509       .  S
C2780      C2781   1.402       .  A
C2780      H2785   1.084       .  S
C2781      C2782   1.416       .  A
C2782      C2783   1.508       .  S
C2783      H2787   1.111       .  S
C2783      H2788   1.110       .  S
C2783      H2789   1.110       .  S
C2786      H2790   1.110       .  S
C2786      H2791   1.110       .  S
C2786      H2792   1.111       .  S
C2793      C2794   1.404       .  A
C2793      C2798   1.404       .  A
C2793      H2800   1.084       .  S
C2794      C2795   1.418       .  A
C2795      C2796   1.406   1_556  A
C2795      C2802   1.508   1_556  S
C2796      C2797   1.404   1_554  A
C2796      H2801   1.084       .  S
C2797      C2798   1.418       .  A
C2798      C2799   1.508       .  S
C2799      H2803   1.111       .  S
C2799      H2804   1.110       .  S
C2799      H2805   1.111       .  S
C2802      H2806   1.110       .  S
C2802      H2807   1.111       .  S
C2802      H2808   1.111       .  S
C2809      C2810   1.403       .  A
C2809      H2816   1.084       .  S
C2810      C2811   1.419       .  A
C2811      C2812   1.410       .  A
C2811      C2818   1.507       .  S
C2812      H2817   1.083       .  S
C2813      C2814   1.420       .  A
C2814      C2815   1.511       .  S
C2815      H2819   1.111       .  S
C2815      H2820   1.110       .  S
C2815      H2821   1.111       .  S
C2818      H2822   1.110       .  S
C2818      H2823   1.110       .  S
C2818      H2824   1.111       .  S
C2825      C2826   1.405       .  A
C2825      C2830   1.404       .  A
C2825      H2832   1.085       .  S
C2826      C2827   1.416       .  A
C2827      C2828   1.405       .  A
C2827      C2834   1.507       .  S
C2828      C2829   1.406       .  A
C2828      H2833   1.084       .  S
C2829      C2830   1.419       .  A
C2830      C2831   1.509       .  S
C2831      H2835   1.111       .  S
C2831      H2836   1.110       .  S
C2831      H2837   1.110       .  S
C2834      H2838   1.110       .  S
C2834      H2839   1.110       .  S
C2834      H2840   1.111       .  S
C2841      C2842   1.406       .  A
C2841      C2846   1.404       .  A
C2841      H2848   1.084       .  S
C2842      C2843   1.419       .  A
C2843      C2844   1.406       .  A
C2843      C2850   1.507       .  S
C2844      C2845   1.403       .  A
C2844      H2849   1.084       .  S
C2845      C2846   1.416       .  A
C2846      C2847   1.509       .  S
C2847      H2851   1.111       .  S
C2847      H2852   1.111       .  S
C2847      H2853   1.110       .  S
C2850      H2854   1.110       .  S
C2850      H2855   1.110       .  S
C2850      H2856   1.111       .  S
C2857      C2858   1.404       .  A
C2857      C2862   1.404   1_455  A
C2857      H2864   1.083       .  S
C2858      C2859   1.419       .  A
C2859      C2860   1.404   1_455  A
C2859      C2866   1.509       .  S
C2860      C2861   1.403       .  A
C2860      H2865   1.083       .  S
C2861      C2862   1.416       .  A
C2862      C2863   1.508       .  S
C2863      H2867   1.111       .  S
C2863      H2868   1.111       .  S
C2863      H2869   1.109       .  S
C2866      H2870   1.111       .  S
C2866      H2871   1.110       .  S
C2866      H2872   1.111       .  S
C2873      C2874   1.404       .  A
C2873      C2878   1.404       .  A
C2873      H2880   1.084       .  S
C2874      C2875   1.418       .  A
C2875      C2876   1.407       .  A
C2875      C2882   1.508       .  S
C2876      C2877   1.404       .  A
C2876      H2881   1.084       .  S
C2877      C2878   1.416       .  A
C2878      C2879   1.509       .  S
C2879      H2883   1.111       .  S
C2879      H2884   1.111       .  S
C2879      H2885   1.110       .  S
C2882      H2886   1.111       .  S
C2882      H2887   1.110       .  S
C2882      H2888   1.111       .  S
C2889      C2890   1.403       .  A
C2889      C2894   1.405       .  A
C2889      H2896   1.085       .  S
C2890      C2891   1.412       .  A
C2891      C2892   1.404       .  A
C2891      C2898   1.507       .  S
C2892      C2893   1.406       .  A
C2892      H2897   1.084       .  S
C2893      C2894   1.420       .  A
C2894      C2895   1.509       .  S
C2895      H2899   1.111       .  S
C2895      H2900   1.110       .  S
C2895      H2901   1.110       .  S
C2898      H2902   1.110       .  S
C2898      H2903   1.109       .  S
C2898      H2904   1.111       .  S
C2905      C2906   1.404       .  A
C2905      C2910   1.403       .  A
C2905      H2912   1.084       .  S
C2906      C2907   1.417       .  A
C2907      C2908   1.406       .  A
C2907      C2914   1.507       .  S
C2908      C2909   1.404       .  A
C2908      H2913   1.084       .  S
C2909      C2910   1.416       .  A
C2910      C2911   1.509       .  S
C2911      H2915   1.111       .  S
C2911      H2916   1.110       .  S
C2911      H2917   1.110       .  S
C2914      H2918   1.110       .  S
C2914      H2919   1.110       .  S
C2914      H2920   1.111       .  S
C2921      C2922   1.406       .  A
C2921      C2926   1.404       .  A
C2921      H2928   1.084       .  S
C2922      C2923   1.417       .  A
C2923      C2924   1.404       .  A
C2923      C2930   1.509       .  S
C2924      C2925   1.406       .  A
C2924      H2929   1.083       .  S
C2925      C2926   1.416       .  A
C2926      C2927   1.508       .  S
C2927      H2931   1.111       .  S
C2927      H2932   1.110       .  S
C2927      H2933   1.110       .  S
C2930      H2934   1.110       .  S
C2930      H2935   1.110       .  S
C2930      H2936   1.111       .  S
C2937      C2938   1.407       .  A
C2937      H2944   1.084       .  S
C2939      C2940   1.406       .  A
C2939      C2946   1.507       .  S
C2940      C2941   1.404       .  A
C2940      H2945   1.085       .  S
C2941      C2942   1.413       .  A
C2942      C2943   1.508       .  S
C2943      H2948   1.109       .  S
C2943      H2949   1.110       .  S
C2946      H2950   1.110       .  S
C2946      H2951   1.110       .  S
C2946      H2952   1.111       .  S
C2953      C2954   1.404       .  A
C2953      C2958   1.402       .  A
C2953      H2960   1.084       .  S
C2954      C2955   1.418       .  A
C2955      C2956   1.406       .  A
C2955      C2962   1.508       .  S
C2956      C2957   1.404       .  A
C2956      H2961   1.084       .  S
C2957      C2958   1.418       .  A
C2958      C2959   1.509       .  S
C2959      H2963   1.111       .  S
C2959      H2964   1.110       .  S
C2959      H2965   1.110       .  S
C2962      H2966   1.110       .  S
C2962      H2967   1.110       .  S
C2962      H2968   1.111       .  S
C2969      C2970   1.405       .  A
C2969      C2974   1.406       .  A
C2969      H2976   1.083       .  S
C2970      C2971   1.416   1_556  A
C2971      C2972   1.406   1_554  A
C2971      C2978   1.507       .  S
C2972      C2973   1.406       .  A
C2972      H2977   1.083   1_556  S
C2973      C2974   1.419       .  A
C2974      C2975   1.508       .  S
C2975      H2979   1.111       .  S
C2975      H2980   1.109       .  S
C2975      H2981   1.111       .  S
C2978      H2982   1.109       .  S
C2978      H2984   1.111       .  S
C2985      C2986   1.404       .  A
C2985      C2990   1.405       .  A
C2985      H2992   1.084       .  S
C2986      C2987   1.416       .  A
C2987      C2988   1.404       .  A
C2987      C2994   1.508       .  S
C2988      C2989   1.405       .  A
C2988      H2993   1.084       .  S
C2989      C2990   1.418       .  A
C2990      C2991   1.508       .  S
C2991      H2995   1.111       .  S
C2991      H2996   1.110       .  S
C2991      H2997   1.110       .  S
C2994      H2998   1.110       .  S
C2994      H2999   1.110       .  S
C2994      H3000   1.111       .  S
C3001      C3002   1.406       .  A
C3001      C3006   1.402       .  A
C3001      H3008   1.084       .  S
C3002      C3003   1.418       .  A
C3003      C3004   1.405       .  A
C3003      C3010   1.507       .  S
C3004      C3005   1.403       .  A
C3004      H3009   1.084       .  S
C3005      C3006   1.414       .  A
C3006      C3007   1.509       .  S
C3007      H3011   1.111       .  S
C3007      H3012   1.109       .  S
C3007      H3013   1.111       .  S
C3010      H3014   1.110       .  S
C3010      H3015   1.110       .  S
C3010      H3016   1.111       .  S
C3017      C3018   1.402       .  A
C3017      H3024   1.084       .  S
C3018      C3019   1.416       .  A
C3019      C3020   1.406       .  A
C3019      C3026   1.507       .  S
C3020      H3025   1.083       .  S
C3021      C3022   1.419       .  A
C3022      C3023   1.510       .  S
C3023      H3027   1.111       .  S
C3023      H3028   1.110       .  S
C3023      H3029   1.111       .  S
C3026      H3030   1.110       .  S
C3026      H3031   1.110       .  S
C3026      H3032   1.111       .  S
C3033      C3034   1.403       .  A
C3033      C3038   1.407   1_565  A
C3033      H3040   1.084       .  S
C3034      C3035   1.415       .  A
C3035      C3036   1.404   1_565  A
C3035      C3042   1.508       .  S
C3036      C3037   1.406       .  A
C3036      H3041   1.084       .  S
C3037      C3038   1.420       .  A
C3038      C3039   1.508       .  S
C3039      H3043   1.111       .  S
C3039      H3044   1.110       .  S
C3039      H3045   1.110       .  S
C3042      H3046   1.111       .  S
C3042      H3047   1.109       .  S
C3042      H3048   1.111       .  S
C3049      C3050   1.407       .  A
C3049      C3054   1.406       .  A
C3049      H3056   1.084       .  S
C3050      C3051   1.417       .  A
C3051      C3052   1.401       .  A
C3051      C3058   1.509       .  S
C3052      C3053   1.404       .  A
C3052      H3057   1.084       .  S
C3053      C3054   1.417       .  A
C3055      H3059   1.111       .  S
C3055      H3060   1.110       .  S
C3058      H3062   1.110       .  S
C3058      H3063   1.110       .  S
C3058      H3064   1.111       .  S
C3065      C3066   1.404       .  A
C3065      C3070   1.406       .  A
C3065      H3072   1.084       .  S
C3066      C3067   1.418       .  A
C3067      C3068   1.403       .  A
C3067      C3074   1.508       .  S
C3068      C3069   1.403       .  A
C3068      H3073   1.084       .  S
C3069      C3070   1.418       .  A
C3070      C3071   1.508       .  S
C3071      H3075   1.111       .  S
C3071      H3076   1.110       .  S
C3071      H3077   1.110       .  S
C3074      H3078   1.110       .  S
C3074      H3079   1.110       .  S
C3074      H3080   1.111       .  S
C3081      C3082   1.400       .  A
C3081      H3088   1.084       .  S
C3082      C3083   1.416       .  A
C3083      C3084   1.406       .  A
C3083      C3090   1.509       .  S
C3084      H3089   1.083       .  S
C3085      C3086   1.421       .  A
C3086      C3087   1.509       .  S
C3087      H3091   1.111       .  S
C3087      H3092   1.110       .  S
C3087      H3093   1.110       .  S
C3090      H3094   1.111       .  S
C3090      H3095   1.110       .  S
C3090      H3096   1.111       .  S
C3097      C3098   1.404       .  A
C3097      C3102   1.403       .  A
C3097      H3104   1.085       .  S
C3098      C3099   1.417       .  A
C3099      C3100   1.402       .  A
C3099      C3106   1.509       .  S
C3100      C3101   1.406       .  A
C3100      H3105   1.085       .  S
C3101      C3102   1.417       .  A
C3102      C3103   1.508       .  S
C3103      H3107   1.111       .  S
C3103      H3108   1.110       .  S
C3103      H3109   1.110       .  S
C3106      H3110   1.110       .  S
C3106      H3111   1.110       .  S
C3106      H3112   1.111       .  S
C3113      C3114   1.405       .  A
C3113      C3118   1.407   1_655  A
C3113      H3120   1.084       .  S
C3114      C3115   1.418       .  A
C3115      C3116   1.403   1_655  A
C3115      C3122   1.509       .  S
C3116      C3117   1.403       .  A
C3116      H3121   1.084       .  S
C3117      C3118   1.416       .  A
C3118      C3119   1.508       .  S
C3119      H3123   1.111       .  S
C3119      H3124   1.111       .  S
C3119      H3125   1.110       .  S
C3122      H3126   1.110       .  S
C3122      H3127   1.110       .  S
C3122      H3128   1.111       .  S
C3129      C3130   1.405       .  A
C3129      C3134   1.405       .  A
C3129      H3136   1.084       .  S
C3130      C3131   1.419       .  A
C3131      C3132   1.402       .  A
C3131      C3138   1.509       .  S
C3132      C3133   1.405       .  A
C3132      H3137   1.084       .  S
C3133      C3134   1.418       .  A
C3134      C3135   1.508       .  S
C3135      H3139   1.111       .  S
C3135      H3140   1.110       .  S
C3135      H3141   1.110       .  S
C3138      H3142   1.110       .  S
C3138      H3143   1.110       .  S
C3138      H3144   1.111       .  S
C3145      C3150   1.405       .  A
C3145      H3152   1.083       .  S
C3146      C3147   1.420       .  A
C3147      C3154   1.509       .  S
C3148      C3149   1.403       .  A
C3148      H3153   1.084       .  S
C3149      C3150   1.416       .  A
C3150      C3151   1.507       .  S
C3151      H3155   1.111       .  S
C3151      H3156   1.110       .  S
C3151      H3157   1.110       .  S
C3154      H3158   1.110       .  S
C3154      H3159   1.110       .  S
C3154      H3160   1.111       .  S
C3161      C3162   1.405       .  A
C3161      C3166   1.402       .  A
C3161      H3168   1.084       .  S
C3162      C3163   1.420       .  A
C3163      C3164   1.408       .  A
C3163      C3170   1.507       .  S
C3164      C3165   1.403       .  A
C3164      H3169   1.085       .  S
C3165      C3166   1.415       .  A
C3166      C3167   1.510       .  S
C3167      H3171   1.111       .  S
C3167      H3172   1.111       .  S
C3167      H3173   1.110       .  S
C3170      H3174   1.111       .  S
C3170      H3175   1.111       .  S
C3170      H3176   1.109       .  S
C3177      C3182   1.405       .  A
C3177      H3184   1.084       .  S
C3178      C3179   1.419       .  A
C3179      C3186   1.509       .  S
C3180      C3181   1.403       .  A
C3180      H3185   1.084       .  S
C3181      C3182   1.419       .  A
C3182      C3183   1.508       .  S
C3183      H3187   1.111       .  S
C3183      H3188   1.111       .  S
C3183      H3189   1.110       .  S
C3186      H3190   1.109       .  S
C3186      H3191   1.109       .  S
C3186      H3192   1.111       .  S
C3193      C3194   1.399       .  A
C3193      C3198   1.401       .  A
C3193      H3200   1.084       .  S
C3194      C3195   1.413       .  A
C3195      C3196   1.405       .  A
C3195      C3202   1.508       .  S
C3196      C3197   1.407       .  A
C3196      H3201   1.084       .  S
C3197      C3198   1.421       .  A
C3198      C3199   1.509       .  S
C3199      H3203   1.111       .  S
C3199      H3204   1.110       .  S
C3199      H3205   1.110       .  S
C3202      H3206   1.110       .  S
C3202      H3207   1.110       .  S
C3202      H3208   1.111       .  S
C3209      C3210   1.407       .  A
C3209      C3214   1.407   1_565  A
C3209      H3216   1.084       .  S
C3210      C3211   1.418       .  A
C3211      C3212   1.407   1_565  A
C3211      C3218   1.508       .  S
C3212      C3213   1.405       .  A
C3212      H3217   1.084       .  S
C3213      C3214   1.416       .  A
C3214      C3215   1.507       .  S
C3215      H3219   1.111       .  S
C3215      H3220   1.111       .  S
C3215      H3221   1.110       .  S
C3218      H3222   1.110       .  S
C3218      H3223   1.110       .  S
C3218      H3224   1.111       .  S
C3225      C3226   1.407       .  A
C3225      C3230   1.405       .  A
C3225      H3232   1.084       .  S
C3226      C3227   1.419       .  A
C3227      C3228   1.405       .  A
C3227      C3234   1.508       .  S
C3228      C3229   1.405       .  A
C3228      H3233   1.084       .  S
C3229      C3230   1.416       .  A
C3231      H3235   1.111       .  S
C3231      H3236   1.110       .  S
C3231      H3237   1.109       .  S
C3234      H3238   1.110       .  S
C3234      H3239   1.110       .  S
C3234      H3240   1.111       .  S
