geometry optimzed in LAMMPS
_audit_creation_date              2020-12-01 
_audit_creation_method            'lammps2cif' 
_symmetry_space_group_name_H-M    'P1' 
_symmetry_Int_Tables_number       1 
_symmetry_cell_setting            triclinic 
loop_ 
_symmetry_equiv_pos_as_xyz 
  x,y,z 
_cell_length_a                    34.84027556 
_cell_length_b                    34.85344478724853 
_cell_length_c                    34.1699583086852 
_cell_angle_alpha                 87.63257288874489 
_cell_angle_beta                  92.50958229442936 
_cell_angle_gamma                 91.87810829281281 
loop_ 
_atom_site_label 
_atom_site_type_symbol 
_atom_site_fract_x 
_atom_site_fract_y 
_atom_site_fract_z 
_atom_site_charge 
N1          N  0.93718115  0.02326306  0.50819443    -0.36000
N2          N  0.94433919  0.93727016  0.50419325    -0.56600
N3          N  0.02426820  0.94951043  0.48932661    -0.36000
N4          N  0.01809041  0.03490456  0.49837675    -0.56600
C5          C  0.90159397  0.01062810  0.51810423     0.27600
C6          C  0.94012762  0.06175991  0.51401310     0.27600
C7          C  0.02277198  0.91037135  0.49302384     0.27600
C8          C  0.06179539  0.96107705  0.49099024     0.27600
C9          C  0.90569018  0.93977244  0.50481393     0.36200
C10         C  0.95171901  0.90068092  0.49511239     0.36200
C11         C  0.00955446  0.07262686  0.49976582     0.36200
C12         C  0.05587949  0.03346279  0.49110156     0.36200
C13         C  0.88133953  0.04166608  0.52957546    -0.21300
C14         C  0.90535962  0.07365215  0.52681709    -0.21300
C15         C  0.05992894  0.89720020  0.49668075    -0.21300
C16         C  0.08435438  0.92891764  0.49529291    -0.21300
C17         C  0.88847647  0.90436043  0.49658309    -0.22400
C18         C  0.91742008  0.87997957  0.48972951    -0.22400
C19         C  0.04264451  0.09510416  0.49469436    -0.22400
C20         C  0.07155279  0.07056402  0.48843973    -0.22400
C21         C  0.88552251  0.97264810  0.51476254    -0.17700
C22         C  0.97272678  0.08684026  0.50730283    -0.17700
C23         C  0.07702657  0.99948185  0.48780113    -0.17700
C24         C  0.98911280  0.88585517  0.49237711    -0.17700
H25         H  0.85185100  0.04162984  0.53831104     0.15200
H26         H  0.89760775  0.10243504  0.53328704     0.15200
H27         H  0.06876983  0.86775134  0.50037345     0.15200
H28         H  0.11541259  0.92826934  0.49763026     0.15200
H29         H  0.85813482  0.89669737  0.49520583     0.13500
H30         H  0.91326986  0.85053704  0.48128315     0.13500
H31         H  0.04626569  0.12593846  0.49585354     0.13500
H32         H  0.10093444  0.07942327  0.48301320     0.13500
H33         H  0.95673650  0.00671799  0.49523147     0.26700
H34         H  0.00162299  0.96731639  0.48206680     0.26700
O35         O  0.07986648  0.52038471  0.50299094    -0.80300
O36         O  0.90203762  0.50804279  0.51835657    -0.65000
O37         O  0.00877258  0.48546303  0.52504204    -1.11600
C38         C  0.98527924  0.45227834  0.39292471     1.06600
O39         O  0.88563686  0.45349247  0.48998269    -0.78200
O40         O  0.94107352  0.40347282  0.47218408    -0.65800
Ni41       Ni  0.04582345  0.52196531  0.54613310     1.34900
C42         C  0.97533809  0.39419843  0.48174052     0.85300
O43         O  0.95501117  0.50805476  0.57735630    -0.78700
O44         O  0.01656722  0.52525591  0.59214129    -0.89000
C45         C  0.87660967  0.48351344  0.50715195     0.84900
O46         O  0.02494956  0.56920531  0.52457180    -0.67200
O47         O  0.95092235  0.44416948  0.40263997    -0.86500
C48         C  0.99104313  0.57801035  0.51301346     0.85700
C49         C  0.98179051  0.51868401  0.60144987     1.07300
H50         H  0.95531477  0.50987152  0.45297206     0.39100
O51         O  0.95799743  0.48641234  0.46882127    -1.09200
O52         O  0.00344630  0.41886738  0.48264152    -0.65800
Ni53       Ni  0.01117399  0.47411412  0.47104648     1.26300
O54         O  0.96352284  0.55296001  0.51022957    -0.66000
O55         O  0.01171509  0.46489880  0.41642578    -0.78300
C56         C  0.09016090  0.49047315  0.48648889     0.85100
O57         O  0.06539642  0.46508959  0.47540614    -0.65500
Ni58       Ni  0.92089383  0.44981502  0.44799700     1.27400
Ni59       Ni  0.95572952  0.49815853  0.52275147     1.26100
H60         H  0.01131284  0.46189522  0.54070616     0.39600
O61         O  0.38585252  0.00653791  0.47058711    -0.80300
O62         O  0.55868155  0.97476665  0.47316210    -0.65000
O63         O  0.45460887  0.97703034  0.50239359    -1.11600
C64         C  0.49034817  0.10532484  0.52983210     1.06600
O65         O  0.57780265  0.99950607  0.52948851    -0.78200
O66         O  0.53098027  0.03073532  0.58068049    -0.65800
Ni67       Ni  0.41352699  0.95977297  0.46843115     1.34900
C68         C  0.49815309  0.01979925  0.59244281     0.85300
O69         O  0.50163462  0.92158629  0.47597295    -0.78700
O70         O  0.43777922  0.91135805  0.46539516    -0.89000
C71         C  0.58508447  0.98227013  0.49863796     0.84900
O72         O  0.43269537  0.97809768  0.41927995    -0.67200
O73         O  0.52499717  0.09425182  0.53191892    -0.86500
C74         C  0.46586031  0.98783150  0.40779827     0.85700
C75         C  0.47219243  0.89970891  0.46975867     1.07300
H76         H  0.50920942  0.04297373  0.47303905     0.39100
O77         O  0.50807283  0.02791299  0.49737185    -1.09200
O78         O  0.46860760  0.01641893  0.56930295    -0.65800
Ni79       Ni  0.45683671  0.02982311  0.51444063     1.26300
O80         O  0.49571095  0.98802427  0.43069258    -0.66000
O81         O  0.46092433  0.08311950  0.52506241    -0.78300
C82         C  0.37777676  0.02190209  0.50220137     0.85100
O83         O  0.40406911  0.02949960  0.52784453    -0.65500
Ni84       Ni  0.54956683  0.04618401  0.53026250     1.27400
Ni85       Ni  0.50597276  0.97496034  0.48589678     1.26100
H86         H  0.45294500  0.96170298  0.52650900     0.39600
N87         N  0.51230957  0.96996020  0.04569191    -0.36000
N88         N  0.52425223  0.05126224  0.05116257    -0.56600
N89         N  0.52987783  0.05875309  0.96479338    -0.36000
N90         N  0.51171041  0.97803288  0.95902228    -0.56600
C91         C  0.50430237  0.97437235  0.08370196     0.27600
C92         C  0.49628964  0.93588366  0.03503181     0.27600
C93         C  0.52540101  0.09561891  0.97432049     0.27600
C94         C  0.52086399  0.05647703  0.92587874     0.27600
C95         C  0.53012801  0.04085508  0.08959493     0.36200
C96         C  0.53797319  0.08781292  0.04664990     0.36200
C97         C  0.51312542  0.93950758  0.96480667     0.36200
C98         C  0.52302474  0.98608995  0.92203217     0.36200
C99         C  0.48279471  0.94280688  0.09725231    -0.21300
C100        C  0.47742337  0.91868614  0.06644730    -0.21300
C101        C  0.51297304  0.11683294  0.94112692    -0.21300
C102        C  0.51055211  0.09224557  0.91053650    -0.21300
C103        C  0.54800914  0.07083115  0.10944258    -0.22400
C104        C  0.55264705  0.10066831  0.08234829    -0.22400
C105        C  0.52544714  0.92308148  0.93143658    -0.22400
C106        C  0.53203811  0.95260389  0.90449659    -0.22400
C107        C  0.51757414  0.00523538  0.10691111    -0.17700
C108        C  0.50120459  0.91868169  0.99879925    -0.17700
C109        C  0.52330408  0.02326487  0.90367776    -0.17700
C110        C  0.53436507  0.11086195  0.01166482    -0.17700
H111        H  0.47205869  0.93768262  0.12631574     0.15200
H112        H  0.46184636  0.89131149  0.06734450     0.15200
H113        H  0.50633836  0.14696883  0.93896018     0.15200
H114        H  0.50179608  0.09977378  0.88049121     0.15200
H115        H  0.55669460  0.07139896  0.14019610     0.13500
H116        H  0.56530913  0.12871473  0.08829451     0.13500
H117        H  0.52953221  0.89294034  0.92700832     0.13500
H118        H  0.54240917  0.94958365  0.87544264     0.13500
H119        H  0.53147251  0.98681616  0.02934756     0.26700
H120        H  0.54229481  0.03743831  0.98295923     0.26700
N121        N  0.98517328  0.49100104  0.04505645    -0.36000
N122        N  0.06845382  0.49778795  0.04281057    -0.56600
N123        N  0.06146259  0.49230292  0.95872868    -0.36000
N124        N  0.97817522  0.48968023  0.96067360    -0.56600
C125        C  0.99472286  0.50328939  0.08132451     0.27600
C126        C  0.94709435  0.49618325  0.03846845     0.27600
C127        C  0.09900478  0.50252428  0.96396877     0.27600
C128        C  0.05145375  0.50048643  0.92072230     0.27600
C129        C  0.06457004  0.49156923  0.08169589     0.36200
C130        C  0.10530859  0.49059031  0.03577773     0.36200
C131        C  0.94256199  0.47680946  0.96964980     0.36200
C132        C  0.98287691  0.48043127  0.92327487     0.36200
C133        C  0.96231860  0.51661818  0.09794850    -0.21300
C134        C  0.93222331  0.51213427  0.07084727    -0.21300
C135        C  0.11306830  0.51745240  0.92900295    -0.21300
C136        C  0.08295165  0.51639139  0.90169561    -0.21300
C137        C  0.09930748  0.48097200  0.09962842    -0.22400
C138        C  0.12500372  0.47976801  0.07040555    -0.22400
C139        C  0.92479607  0.45877758  0.93791621    -0.22400
C140        C  0.95027349  0.46149003  0.90831260    -0.22400
C141        C  0.03073779  0.49832952  0.10119543    -0.17700
C142        C  0.92525696  0.48421206  0.00509170    -0.17700
C143        C  0.01568274  0.49078275  0.90218421    -0.17700
C144        C  0.12148044  0.49593483  0.99870480    -0.17700
H145        H  0.96029878  0.52748542  0.12697495     0.15200
H146        H  0.90266066  0.51920423  0.07480411     0.15200
H147        H  0.14211296  0.52769162  0.92365821     0.15200
H148        H  0.08435812  0.52555831  0.87112628     0.15200
H149        H  0.10567881  0.47485022  0.13047401     0.13500
H150        H  0.15479111  0.47211793  0.07445249     0.13500
H151        H  0.89638200  0.44532630  0.93606647     0.13500
H152        H  0.94547863  0.45056240  0.87925643     0.13500
H153        H  0.00238682  0.47516254  0.02802873     0.26700
H154        H  0.04516958  0.47605859  0.97852675     0.26700
O155        O  0.52321570  0.41678830  0.01762274    -0.80300
O156        O  0.50281148  0.59032793  0.02441271    -0.65000
O157        O  0.50183452  0.48924155  0.98615827    -1.11600
C158        C  0.63077480  0.51571692  0.96065290     1.06600
O159        O  0.53969031  0.61630637  0.97816581    -0.78200
O160        O  0.54495186  0.56642983  0.92087088    -0.65800
Ni161      Ni  0.47788290  0.44741146  0.01464360     1.34900
C162        C  0.54091381  0.53410485  0.90534104     0.85300
O163        O  0.44693960  0.53762791  0.01208098    -0.78700
O164        O  0.43068087  0.47447514  0.01264707    -0.89000
C165        C  0.51660606  0.61930806  0.00563758     0.84900
O166        O  0.48877777  0.46250657  0.06745800    -0.67200
O167        O  0.61797096  0.54844894  0.94983690    -0.86500
C168        C  0.50142137  0.49373209  0.08179717     0.85700
C169        C  0.42218099  0.50987665  0.01280687     1.07300
H170        H  0.56957605  0.53987544  0.02400933     0.39100
O171        O  0.55563727  0.53935237  0.99894949    -1.09200
O172        O  0.54840796  0.50255770  0.92425561    -0.65800
Ni173      Ni  0.55579211  0.48839395  0.98026584     1.26300
O174        O  0.50981164  0.52351714  0.06071943    -0.66000
O175        O  0.61017031  0.48922263  0.97654156    -0.78300
C176        C  0.54327476  0.40958745  0.98867622     0.85100
O177        O  0.55399211  0.43628964  0.96491087    -0.65500
Ni178      Ni  0.57656121  0.57934207  0.96543776     1.27400
Ni179      Ni  0.50142518  0.53927001  0.00625182     1.26100
H180        H  0.48904468  0.49039015  0.96049231     0.39600
O181        O  0.45057178  0.50498414  0.39354395    -0.80300
O182        O  0.46899494  0.53805533  0.57681270    -0.65000
O183        O  0.48327626  0.52994432  0.46612606    -1.11600
C184        C  0.50773978  0.40078292  0.50754244     1.06600
O185        O  0.52450722  0.51104973  0.58720599    -0.78200
O186        O  0.56516574  0.47192478  0.53808582    -0.65800
Ni187      Ni  0.44324440  0.54564217  0.42923182     1.34900
C188        C  0.57336660  0.48236726  0.50337410     0.85300
O189        O  0.46792033  0.58888666  0.51485697    -0.78700
O190        O  0.43252372  0.59000060  0.45838382    -0.89000
C191        C  0.49607810  0.52723847  0.60053239     0.84900
O192        O  0.40293240  0.51633408  0.45367808    -0.67200
O193        O  0.51263699  0.41285502  0.54221782    -0.86500
C194        C  0.39432718  0.51663879  0.48944118     0.85700
C195        C  0.44707546  0.60603954  0.48863415     1.07300
H196        H  0.45806247  0.46807999  0.52846347     0.39100
O197        O  0.48235893  0.48134660  0.52398942    -1.09200
O198        O  0.54788649  0.48759433  0.47598678    -0.65800
Ni199      Ni  0.49317944  0.47620353  0.47036992     1.26300
O200        O  0.41883102  0.52587522  0.51670805    -0.66000
O201        O  0.50203475  0.42234382  0.47690254    -0.78300
C202        C  0.47891632  0.48397780  0.38785164     0.85100
O203        O  0.50174796  0.47283488  0.41568862    -0.65500
Ni204      Ni  0.51786190  0.46241409  0.56352623     1.27400
Ni205      Ni  0.47452307  0.53512227  0.52078008     1.26100
H206        H  0.50651238  0.54433330  0.45974975     0.39600
C207        C  0.52615214  0.50790434  0.79594398     0.19300
C208        C  0.54360090  0.48086927  0.77381400    -0.18800
C209        C  0.54060788  0.48294061  0.73285487    -0.11100
C210        C  0.51958238  0.51178270  0.71251060     0.21500
C211        C  0.50119621  0.53855903  0.73444431    -0.20400
C212        C  0.50443367  0.53664460  0.77572879    -0.11300
C213        C  0.51925439  0.51286600  0.66868422    -0.15400
C214        C  0.49461300  0.53194266  0.64365574    -0.29300
C215        C  0.53227506  0.50514780  0.83969202    -0.03600
C216        C  0.52836566  0.53475689  0.86315700    -0.40100
H217        H  0.56037997  0.45836484  0.78827418     0.12700
H218        H  0.55507897  0.46181983  0.71692199     0.12300
H219        H  0.48492846  0.56134550  0.71995097     0.11700
H220        H  0.48977220  0.55764695  0.79149739     0.12000
H221        H  0.54014742  0.49496365  0.65614691     0.14700
H222        H  0.47203507  0.54873877  0.65462825     0.13500
H223        H  0.54374802  0.47869017  0.85266825     0.11200
H224        H  0.51920472  0.56216234  0.85046506     0.13200
C225        C  0.49007385  0.47483689  0.19357236     0.19300
C226        C  0.49330305  0.44369258  0.22097752    -0.18800
C227        C  0.48759954  0.44845651  0.26098560    -0.11100
C228        C  0.47769783  0.48440855  0.27419559     0.21500
C229        C  0.47386239  0.51522831  0.24667361    -0.20400
C230        C  0.48017782  0.51066618  0.20701833    -0.11300
C231        C  0.46925314  0.49100690  0.31577749    -0.15400
C232        C  0.48541040  0.47216300  0.34734272    -0.29300
C233        C  0.49382007  0.46874830  0.15084274    -0.03600
C234        C  0.50479728  0.49704715  0.12506069    -0.40100
H235        H  0.50009114  0.41557214  0.21135766     0.12700
H236        H  0.48988223  0.42384299  0.28122675     0.12300
H237        H  0.46575132  0.54309792  0.25590165     0.11700
H238        H  0.47595985  0.53502688  0.18680510     0.12000
H239        H  0.45088635  0.51482764  0.32063439     0.14700
H240        H  0.50599045  0.45006115  0.34341802     0.13500
H241        H  0.48614658  0.44043880  0.14022259     0.11200
H242        H  0.51424214  0.52482199  0.13582518     0.13200
C243        C  0.73467368  0.48384284  0.97692918     0.19300
C244        C  0.75559976  0.47478822  0.01191962    -0.18800
C245        C  0.79579150  0.47741630  0.01354164    -0.11100
C246        C  0.81583614  0.48867798  0.97983412     0.21500
C247        C  0.79481028  0.49638672  0.94456143    -0.20400
C248        C  0.75470774  0.49386349  0.94300222    -0.11300
C249        C  0.85833399  0.49380595  0.97992250    -0.15400
C250        C  0.88280962  0.47942197  0.00794329    -0.29300
C251        C  0.69212222  0.48429330  0.97720870    -0.03600
C252        C  0.67164169  0.50943918  0.95464739    -0.40100
H253        H  0.74075948  0.46697277  0.03843487     0.12700
H254        H  0.81066197  0.47167764  0.04147109     0.12300
H255        H  0.80949255  0.50467170  0.91806451     0.11700
H256        H  0.73950372  0.49993656  0.91525508     0.12000
H257        H  0.87026771  0.50950057  0.95487845     0.14700
H258        H  0.87222357  0.46448265  0.03393391     0.13500
H259        H  0.67782389  0.46688706  0.99969715     0.11200
H260        H  0.68615788  0.52950314  0.93465969     0.13200
C261        C  0.31151064  0.49981539  0.00945712     0.19300
C262        C  0.28580170  0.46993280  0.99864717    -0.18800
C263        C  0.24630471  0.47390255  0.00051413    -0.11100
C264        C  0.23147299  0.50820176  0.01290438     0.21500
C265        C  0.25703638  0.53809887  0.02398506    -0.20400
C266        C  0.29672456  0.53410325  0.02221180    -0.11300
C267        C  0.18964832  0.51274408  0.01620470    -0.15400
C268        C  0.16341600  0.49271762  0.99474833    -0.29300
C269        C  0.35320987  0.49279122  0.00842305    -0.03600
C270        C  0.38139399  0.51956671  0.01383223    -0.40100
H271        H  0.29633197  0.44305481  0.98919996     0.12700
H272        H  0.22766171  0.44959470  0.99318105     0.12300
H273        H  0.24625658  0.56457843  0.03414018     0.11700
H274        H  0.31532664  0.55767233  0.03157082     0.12000
H275        H  0.18006876  0.53341836  0.03636097     0.14700
H276        H  0.17244563  0.47507724  0.97158589     0.13500
H277        H  0.36110189  0.46373567  0.00249600     0.11200
H278        H  0.37496002  0.54924136  0.01821082     0.13200
C279        C  0.50570219  0.80854418  0.01299811     0.19300
C280        C  0.50730079  0.78169521  0.04476589    -0.18800
C281        C  0.50801961  0.74228152  0.03837727    -0.11100
C282        C  0.50769287  0.72922944  0.99994849     0.21500
C283        C  0.50591605  0.75611787  0.96831371    -0.20400
C284        C  0.50488070  0.79529244  0.97465766    -0.11300
C285        C  0.51355547  0.68861259  0.99132245    -0.15400
C286        C  0.50568580  0.65823387  0.01560178    -0.29300
C287        C  0.50819156  0.85019071  0.02038441    -0.03600
C288        C  0.49309803  0.87679352  0.99507990    -0.40100
H289        H  0.50862000  0.79130312  0.07455736     0.12700
H290        H  0.51049677  0.72240424  0.06345851     0.12300
H291        H  0.50634352  0.74681906  0.93846694     0.11700
H292        H  0.50515622  0.81508978  0.94943299     0.12000
H293        H  0.52536717  0.68358797  0.96311317     0.14700
H294        H  0.49162938  0.66187838  0.04287020     0.13500
H295        H  0.52394728  0.85924841  0.04673877     0.11200
H296        H  0.47714822  0.86786735  0.96882929     0.13200
C297        C  0.55449682  0.30000515  0.00462075     0.19300
C298        C  0.55296929  0.27504374  0.03783154    -0.18800
C299        C  0.55519652  0.23542981  0.03448519    -0.11100
C300        C  0.55852714  0.21972048  0.99759963     0.21500
C301        C  0.56199001  0.24466577  0.96454525    -0.20400
C302        C  0.55973412  0.28446875  0.96787602    -0.11300
C303        C  0.55747484  0.17752759  0.99281358    -0.15400
C304        C  0.53676856  0.15325787  0.01592379    -0.29300
C305        C  0.54727313  0.34129746  0.00957213    -0.03600
C306        C  0.55489606  0.36982729  0.98300130    -0.40100
H307        H  0.54931264  0.28620227  0.06651827     0.12700
H308        H  0.55400413  0.21720891  0.06084876     0.12300
H309        H  0.56490555  0.23322808  0.93585876     0.11700
H310        H  0.56056160  0.30256035  0.94144377     0.12000
H311        H  0.57236065  0.16637913  0.96862075     0.14700
H312        H  0.52140189  0.16438808  0.03975623     0.13500
H313        H  0.53437863  0.34845350  0.03663749     0.11200
H314        H  0.56935969  0.36418842  0.95646786     0.13200
C315        C  0.45479693  0.79140519  0.48713172     0.19300
C316        C  0.42185577  0.76853652  0.49475489    -0.18800
C317        C  0.42473658  0.72939575  0.50384082    -0.11100
C318        C  0.46074826  0.71239093  0.50547052     0.21500
C319        C  0.49385698  0.73523676  0.49929838    -0.20400
C320        C  0.49102229  0.77439593  0.48997366    -0.11300
C321        C  0.46424838  0.67050987  0.51067083    -0.15400
C322        C  0.43929845  0.64667430  0.49216737    -0.29300
C323        C  0.44974397  0.83292169  0.47824926    -0.03600
C324        C  0.47842431  0.85829247  0.47000513    -0.40100
H325        H  0.39369864  0.78095312  0.49349550     0.12700
H326        H  0.39880671  0.71238851  0.50929341     0.12300
H327        H  0.52186735  0.72251021  0.50047817     0.11700
H328        H  0.51735756  0.79070832  0.48513924     0.12000
H329        H  0.49042017  0.65942266  0.52477384     0.14700
H330        H  0.41527167  0.65817135  0.47455567     0.13500
H331        H  0.42099720  0.84351566  0.48091785     0.11200
H332        H  0.50767369  0.84939760  0.46766079     0.13200
C333        C  0.50885585  0.21353447  0.52605348     0.19300
C334        C  0.53313581  0.23746031  0.50352709    -0.18800
C335        C  0.53162841  0.27713799  0.50533629    -0.11100
C336        C  0.50599445  0.29326203  0.53008242     0.21500
C337        C  0.48217473  0.26943645  0.55313212    -0.20400
C338        C  0.48332381  0.22972589  0.55096937    -0.11300
C339        C  0.50480776  0.33486127  0.53363546    -0.15400
C340        C  0.50873998  0.35939530  0.50273934    -0.29300
C341        C  0.51275570  0.17187603  0.52462054    -0.03600
C342        C  0.48414712  0.14640387  0.53229295    -0.40100
H343        H  0.55341415  0.22539325  0.48464115     0.12700
H344        H  0.55108080  0.29510547  0.48815865     0.12300
H345        H  0.46267616  0.28161022  0.57277067     0.11700
H346        H  0.46511798  0.21192233  0.56961996     0.12000
H347        H  0.49879841  0.34542711  0.56216762     0.14700
H348        H  0.51158584  0.34890845  0.47353020     0.13500
H349        H  0.54006015  0.16184978  0.51541656     0.11200
H350        H  0.45562060  0.15570040  0.53826760     0.13200
C351        C  0.51676290  0.01695670  0.70644319     0.19300
C352        C  0.54495523  0.03437190  0.73128181    -0.18800
C353        C  0.54246267  0.03183789  0.77223743    -0.11100
C354        C  0.51149381  0.01170220  0.78970220     0.21500
C355        C  0.48370005  0.99369753  0.76492630    -0.20400
C356        C  0.48615628  0.99627236  0.72396205    -0.11300
C357        C  0.50770291  0.00734281  0.83330742    -0.15400
C358        C  0.52746521  0.02870782  0.86008457    -0.29300
C359        C  0.52087357  0.02109964  0.66282825    -0.03600
C360        C  0.49346956  0.01149157  0.63522604    -0.40100
H361        H  0.56915785  0.05015585  0.71892108     0.12700
H362        H  0.56522353  0.04524065  0.78988891     0.12300
H363        H  0.45980140  0.97747844  0.77735227     0.11700
H364        H  0.46413490  0.98164235  0.70643907     0.12000
H365        H  0.48689722  0.98588273  0.84388759     0.14700
H366        H  0.54582375  0.05256148  0.85020508     0.13500
H367        H  0.54757258  0.03443556  0.65295888     0.11200
H368        H  0.46587197  0.99954927  0.64386859     0.13200
C369        C  0.50257155  0.00479010  0.30237184     0.19300
C370        C  0.52861034  0.98500379  0.28094146    -0.18800
C371        C  0.52966837  0.99030560  0.24000807    -0.11100
C372        C  0.50488041  0.01601205  0.21942709     0.21500
C373        C  0.47985636  0.03681796  0.24113258    -0.20400
C374        C  0.47851826  0.03119658  0.28197295    -0.11300
C375        C  0.50487628  0.02288411  0.17577962    -0.15400
C376        C  0.51911952  0.99849936  0.15070515    -0.29300
C377        C  0.50136288  0.99745512  0.34581503    -0.03600
C378        C  0.46878124  0.99920005  0.36555382    -0.40100
H379        H  0.54788007  0.96490732  0.29588918     0.12700
H380        H  0.55030879  0.97456919  0.22483673     0.12300
H381        H  0.46094211  0.05735573  0.22635874     0.11700
H382        H  0.45891281  0.04788783  0.29753439     0.12000
H383        H  0.49110633  0.04848901  0.16354769     0.14700
H384        H  0.52969622  0.97108052  0.16191594     0.13500
H385        H  0.52717408  0.98727383  0.36138295     0.11200
H386        H  0.44216796  0.00611148  0.34945960     0.13200
C387        C  0.76482998  0.47707077  0.50316335     0.19300
C388        C  0.73742975  0.46546434  0.47422450    -0.18800
C389        C  0.69800727  0.46931037  0.47912118    -0.11100
C390        C  0.68494052  0.48454640  0.51344302     0.21500
C391        C  0.71229438  0.49616301  0.54239933    -0.20400
C392        C  0.75175667  0.49274076  0.53730860    -0.11300
C393        C  0.64324114  0.48518756  0.52170588    -0.15400
C394        C  0.61454624  0.48710625  0.49382460    -0.29300
C395        C  0.80636429  0.47051149  0.49734467    -0.03600
C396        C  0.83583606  0.48972731  0.51555937    -0.40100
H397        H  0.74655972  0.45292275  0.44781277     0.12700
H398        H  0.67787447  0.45897020  0.45665111     0.12300
H399        H  0.70304178  0.50743280  0.56939880     0.11700
H400        H  0.77170477  0.50119220  0.56076082     0.12000
H401        H  0.63593224  0.48359095  0.55233994     0.14700
H402        H  0.62128565  0.49089902  0.46316474     0.13500
H403        H  0.81292123  0.44995030  0.47571011     0.11200
H404        H  0.83014647  0.51225012  0.53531299     0.13200
C405        C  0.28280303  0.50135185  0.48102994     0.19300
C406        C  0.25629278  0.48747469  0.45227707    -0.18800
C407        C  0.21649081  0.48808641  0.45724488    -0.11100
C408        C  0.20205282  0.50302364  0.49110803     0.21500
C409        C  0.22853545  0.51686419  0.51986624    -0.20400
C410        C  0.26830986  0.51592845  0.51507677    -0.11300
C411        C  0.15992214  0.50689622  0.49665138    -0.15400
C412        C  0.13151344  0.48575608  0.47874161    -0.29300
C413        C  0.32477878  0.50332653  0.47271153    -0.03600
C414        C  0.35373551  0.50819469  0.49999530    -0.40100
H415        H  0.26642706  0.47664249  0.42544641     0.12700
H416        H  0.19722651  0.47801688  0.43392062     0.12300
H417        H  0.21837112  0.52895672  0.54607239     0.11700
H418        H  0.28737207  0.52794946  0.53752134     0.12000
H419        H  0.15201090  0.52747579  0.51771634     0.14700
H420        H  0.13858603  0.46325828  0.45950887     0.13500
H421        H  0.33200875  0.50189290  0.44220092     0.11200
H422        H  0.34746029  0.50860518  0.53077610     0.13200
C423        C  0.99009419  0.51725992  0.79430497     0.19300
C424        C  0.95661223  0.52232499  0.77056439    -0.18800
C425        C  0.95885166  0.52794007  0.72989407    -0.11500
C426        C  0.99482697  0.52901657  0.71258954     0.21500
C427        C  0.02823816  0.52568198  0.73664808    -0.20400
C428        C  0.02599017  0.51987592  0.77699495    -0.11300
C429        C  0.99943499  0.53278547  0.66976725    -0.15400
C430        C  0.97233738  0.52208648  0.64281211    -0.29300
C431        C  0.98739287  0.51100648  0.83720681    -0.03600
C432        C  0.01368701  0.49107282  0.85880161    -0.40100
H433        H  0.92872182  0.52139518  0.78345557     0.12700
H434        H  0.93255060  0.53159961  0.71232399     0.12300
H435        H  0.05630787  0.52698760  0.72410288     0.11700
H436        H  0.05253069  0.51798735  0.79452950     0.12000
H437        H  0.02799159  0.54112327  0.66023333     0.14700
H438        H  0.94386772  0.51255386  0.65143171     0.13500
H439        H  0.96395128  0.52385256  0.85145272     0.11200
H440        H  0.03684994  0.47770912  0.84467860     0.13200
C441        C  0.02935810  0.46515407  0.29229228     0.19300
C442        C  0.04399817  0.49828506  0.27278521    -0.18800
C443        C  0.04699249  0.49952628  0.23211413    -0.11100
C444        C  0.03574446  0.46735156  0.21035154     0.21500
C445        C  0.02306134  0.43356790  0.23015275    -0.20400
C446        C  0.01963145  0.43248415  0.27074485    -0.11300
C447        C  0.03693545  0.46793754  0.16709934    -0.15400
C448        C  0.03267529  0.50004450  0.14444764    -0.29300
C449        C  0.02384160  0.46578201  0.33493562    -0.03600
C450        C  0.99403114  0.44721364  0.35175743    -0.40100
H451        H  0.05219372  0.52358684  0.28894001     0.12700
H452        H  0.05818922  0.52559218  0.21788546     0.12300
H453        H  0.01493206  0.40821863  0.21404659     0.11700
H454        H  0.00937517  0.40612434  0.28518675     0.12000
H455        H  0.03901667  0.44067855  0.15306202     0.14700
H456        H  0.02711551  0.52719278  0.15724208     0.13500
H457        H  0.04236760  0.48502203  0.35211435     0.11200
H458        H  0.97338731  0.43068755  0.33401731     0.13200
C459        C  0.26716376  0.02583431  0.48816037     0.19300
C460        C  0.24148610  0.01905124  0.45618083    -0.18800
C461        C  0.20180441  0.01760654  0.46069186    -0.11100
C462        C  0.18670809  0.02256376  0.49763230     0.21500
C463        C  0.21228060  0.03059965  0.52935154    -0.20400
C464        C  0.25205336  0.03211370  0.52482850    -0.11300
C465        C  0.14471634  0.01987763  0.50429754    -0.15400
C466        C  0.11860166  0.00363276  0.47937084    -0.29300
C467        C  0.30906653  0.02338181  0.48205493    -0.03600
C468        C  0.33747169  0.03092669  0.50901686    -0.40100
H469        H  0.25218988  0.01434438  0.42752187     0.12700
H470        H  0.18334108  0.01273002  0.43503070     0.12300
H471        H  0.20146739  0.03494375  0.55803226     0.11700
H472        H  0.27050445  0.03723184  0.55041760     0.12000
H473        H  0.13486395  0.03052518  0.53146650     0.14700
H474        H  0.12767822  0.98961958  0.45375326     0.13500
H475        H  0.31686007  0.01313451  0.45393568     0.11200
H476        H  0.33136917  0.04211173  0.53711144     0.13200
C477        C  0.77454005  0.96193905  0.50368868     0.19300
C478        C  0.74841751  0.95920198  0.47133493    -0.18800
C479        C  0.70895508  0.96296238  0.47559326    -0.11100
C480        C  0.69466794  0.96938190  0.51258757     0.21500
C481        C  0.72057811  0.97079868  0.54510555    -0.20400
C482        C  0.75993212  0.96690692  0.54090494    -0.11300
C483        C  0.65373202  0.97759291  0.51841272    -0.15400
C484        C  0.62453149  0.97015167  0.49244668    -0.29300
C485        C  0.81651360  0.96156781  0.49671001    -0.03600
C486        C  0.84447943  0.96713347  0.52452496    -0.40100
H487        H  0.75868834  0.95529459  0.44233718     0.12700
H488        H  0.69021208  0.96228850  0.44956850     0.12300
H489        H  0.71038543  0.97563227  0.57395074     0.11700
H490        H  0.77837760  0.96861862  0.56699870     0.12000
H491        H  0.64746248  0.99096352  0.54550648     0.14700
H492        H  0.62939985  0.95565836  0.46572236     0.13500
H493        H  0.82500391  0.95856620  0.46676660     0.11200
H494        H  0.83786234  0.97193899  0.55452431     0.13200
C495        C  0.98458297  0.77206510  0.50390081     0.19300
C496        C  0.95468967  0.74442607  0.50936151    -0.18800
C497        C  0.96140628  0.70474883  0.50928657    -0.11100
C498        C  0.99859199  0.69132171  0.50448773     0.21500
C499        C  0.02851073  0.71905216  0.49901827    -0.20400
C500        C  0.02162197  0.75875748  0.49832785    -0.11300
C501        C  0.00792596  0.64919118  0.50835279    -0.15400
C502        C  0.98205724  0.61944417  0.50386816    -0.29300
C503        C  0.97681486  0.81408191  0.50764399    -0.03600
C504        C  0.99476242  0.84323081  0.48729402    -0.40100
H505        H  0.92593791  0.75361113  0.51420100     0.12700
H506        H  0.93759835  0.68479395  0.51455298     0.12300
H507        H  0.05759487  0.70994392  0.49581567     0.11700
H508        H  0.04563723  0.77895795  0.49500504     0.12000
H509        H  0.03763808  0.64248526  0.51591602     0.14700
H510        H  0.95253731  0.62551934  0.49497789     0.13500
H511        H  0.95538320  0.82100577  0.52813976     0.11200
H512        H  0.01628289  0.83577496  0.46709777     0.13200
C513        C  0.96412698  0.28138705  0.49274185     0.19300
C514        C  0.93724779  0.25488243  0.50915567    -0.18800
C515        C  0.94220976  0.21486834  0.50840730    -0.11100
C516        C  0.97378780  0.20007828  0.49021737     0.21500
C517        C  0.00036611  0.22656141  0.47342593    -0.20400
C518        C  0.99592958  0.26652091  0.47504087    -0.11300
C519        C  0.97854814  0.15761401  0.48565536    -0.15400
C520        C  0.96801844  0.12961349  0.51224793    -0.29300
C521        C  0.95624498  0.32382267  0.49096674    -0.03600
C522        C  0.98374121  0.35245334  0.48995337    -0.40100
H523        H  0.91202547  0.26519907  0.52233648     0.12700
H524        H  0.92055638  0.19558084  0.52080186     0.12300
H525        H  0.02468629  0.21623842  0.45869227     0.11700
H526        H  0.01668988  0.28568678  0.46102422     0.12000
H527        H  0.99225242  0.14923361  0.45951029     0.14700
H528        H  0.95445226  0.13808589  0.53840311     0.13500
H529        H  0.92628570  0.33167749  0.48988179     0.11200
H530        H  0.01374559  0.34494768  0.49307849     0.13200
loop_ 
_geom_bond_atom_site_label_1 
_geom_bond_atom_site_label_2 
_geom_bond_distance 
_geom_bond_site_symmetry_2 
_ccdc_geom_bond_type 
N1            C6   1.364       .  A
N1            C5   1.354       .  A
N1           H33   1.033       .  S
N2            C9   1.353       .  A
N2           C10   1.360       .  A
N3            C8   1.355       .  A
N3            C7   1.364       .  A
N3           H34   1.035       .  S
N4           C11   1.361       .  A
N4           C12   1.353       .  A
C5           C13   1.390       .  A
C5           C21   1.427   1_545  A
C6           C22   1.431       .  A
C6           C14   1.387       .  A
C7           C15   1.386       .  A
C7           C24   1.428   1_455  A
C8           C23   1.425       .  A
C8           C16   1.389       .  A
C9           C21   1.424       .  A
C9           C17   1.388       .  A
C10          C24   1.425       .  A
C10          C18   1.385       .  A
C11          C19   1.386       .  A
C11          C22   1.428   1_455  A
C12          C20   1.388       .  A
C12          C23   1.426   1_545  A
C13          C14   1.374       .  A
C13          H25   1.082       .  S
C14          H26   1.081       .  S
C15          C16   1.373       .  A
C15          H27   1.082       .  S
C16          H28   1.082       .  S
C17          C18   1.374       .  A
C17          H29   1.081       .  S
C18          H30   1.081       .  S
C19          C20   1.372       .  A
C19          H31   1.080       .  S
C20          H32   1.081       .  S
C21         C486   1.487       .  S
C22         C520   1.522       .  S
C23         C466   1.490   1_565  S
C24         C504   1.523       .  S
O35         Ni41   1.936       .  S
O35          C56   1.274       .  A
O36         Ni59   1.912       .  S
O36          C45   1.269       .  A
O37         Ni41   1.921       .  S
O37         Ni59   1.912   1_455  S
O37         Ni53   1.909       .  S
O37          H60   0.966       .  S
C38         C450   1.471       .  S
C38          O55   1.275   1_655  A
C38          O47   1.276       .  A
O39         Ni58   1.940       .  S
O39          C45   1.275       .  A
O40         Ni58   1.923       .  S
O40          C42   1.272       .  A
Ni41         O44   1.920       .  S
Ni41         O46   1.927       .  S
C42         C522   1.506       .  S
C42          O52   1.282   1_655  A
O43         Ni59   1.913       .  S
O43          C49   1.273       .  A
O44          C49   1.277   1_455  A
C45         C396   1.486       .  S
O46          C48   1.272   1_455  A
O47         Ni58   1.928       .  S
C48         C502   1.505       .  S
C48          O54   1.279       .  A
C49         C430   1.476       .  S
H50          O51   0.967       .  S
O51         Ni59   1.910       .  S
O51         Ni53   1.913   1_655  S
O51         Ni58   1.921       .  S
O52         Ni53   1.962       .  S
Ni53         O57   1.924       .  S
Ni53         O55   1.908       .  S
O54         Ni59   1.953       .  S
C56         C412   1.492       .  S
C56          O57   1.273       .  A
O61         Ni67   1.926   1_545  S
O61          C82   1.272       .  A
O62         Ni85   1.906       .  S
O62          C71   1.267       .  A
O63         Ni67   1.901       .  S
O63         Ni85   1.904       .  S
O63         Ni79   1.900   1_565  S
O63          H86   0.966       .  S
C64         C342   1.461       .  S
C64          O81   1.273       .  A
C64          O73   1.278       .  A
O65         Ni84   1.930   1_565  S
O65          C71   1.274       .  A
O66         Ni84   1.917       .  S
O66          C68   1.270       .  A
Ni67         O70   1.920       .  S
Ni67         O72   1.912       .  S
C68         C360   1.493       .  S
C68          O78   1.276       .  A
O69         Ni85   1.905       .  S
O69          C75   1.273       .  A
O70          C75   1.279       .  A
C71         C484   1.477       .  S
O72          C74   1.268       .  A
O73         Ni84   1.910       .  S
C74         C378   1.488       .  S
C74          O80   1.274       .  A
C75         C324   1.466       .  S
H76          O77   0.966       .  S
O77         Ni85   1.901   1_545  S
O77         Ni79   1.906       .  S
O77         Ni84   1.901       .  S
O78         Ni79   1.943       .  S
Ni79         O83   1.914       .  S
Ni79         O81   1.907       .  S
O80         Ni85   1.943       .  S
C82         C468   1.479       .  S
C82          O83   1.269       .  A
N87          C92   1.353       .  A
N87          C91   1.356       .  A
N87         H119   1.040       .  S
N88          C95   1.356       .  A
N88          C96   1.351       .  A
N89          C94   1.358       .  A
N89          C93   1.354       .  A
N89         H120   1.041       .  S
N90          C97   1.351       .  A
N90          C98   1.356       .  A
C91          C99   1.386       .  A
C91         C107   1.416   1_565  A
C92         C108   1.417   1_554  A
C92         C100   1.388       .  A
C93         C101   1.389       .  A
C93         C110   1.421   1_556  A
C94         C109   1.417       .  A
C94         C102   1.385       .  A
C95         C107   1.417       .  A
C95         C103   1.385       .  A
C96         C110   1.416       .  A
C96         C104   1.388       .  A
C97         C105   1.387       .  A
C97         C108   1.415       .  A
C98         C106   1.385       .  A
C98         C109   1.416   1_565  A
C99         C100   1.377       .  A
C99         H111   1.082       .  S
C100        H112   1.082       .  S
C101        C102   1.377       .  A
C101        H113   1.082       .  S
C102        H114   1.082       .  S
C103        C104   1.374       .  A
C103        H115   1.082       .  S
C104        H116   1.082       .  S
C105        C106   1.372       .  A
C105        H117   1.082       .  S
C106        H118   1.082       .  S
C107        C376   1.504   1_545  S
C108        C288   1.487       .  S
C109        C358   1.507       .  S
C110        C304   1.490       .  S
N121        C126   1.353       .  A
N121        C125   1.352       .  A
N121        H153   1.040   1_655  S
N122        C129   1.349       .  A
N122        C130   1.350       .  A
N123        C128   1.351       .  A
N123        C127   1.351       .  A
N123        H154   1.040       .  S
N124        C131   1.349       .  A
N124        C132   1.349       .  A
C125        C133   1.388       .  A
C125        C141   1.413   1_655  A
C126        C142   1.413       .  A
C126        C134   1.386       .  A
C127        C135   1.386       .  A
C127        C144   1.408       .  A
C128        C143   1.411       .  A
C128        C136   1.388       .  A
C129        C141   1.410       .  A
C129        C137   1.386       .  A
C130        C144   1.412   1_554  A
C130        C138   1.386       .  A
C131        C139   1.388       .  A
C131        C142   1.413   1_556  A
C132        C140   1.384       .  A
C132        C143   1.407   1_655  A
C133        C134   1.378       .  A
C133        H145   1.082       .  S
C134        H146   1.082       .  S
C135        C136   1.374       .  A
C135        H147   1.083       .  S
C136        H148   1.082       .  S
C137        C138   1.373       .  A
C137        H149   1.082       .  S
C138        H150   1.082       .  S
C139        C140   1.373       .  A
C139        H151   1.082       .  S
C140        H152   1.082       .  S
C141        C448   1.480       .  S
C142        C250   1.490       .  S
C143        C432   1.481       .  S
C144        C268   1.481       .  S
O155       Ni161   1.932       .  S
O155        C176   1.274   1_554  A
O156       Ni179   1.907       .  S
O156        C165   1.267       .  A
O157       Ni161   1.909   1_556  S
O157       Ni179   1.901   1_556  S
O157       Ni173   1.901       .  S
O157        H180   0.966       .  S
C158        C252   1.472       .  S
C158        O175   1.270       .  A
C158        O167   1.273       .  A
O159       Ni178   1.924       .  S
O159        C165   1.272   1_556  A
O160       Ni178   1.900       .  S
O160        C162   1.266       .  A
Ni161       O164   1.920       .  S
Ni161       O166   1.919       .  S
C162        C216   1.487       .  S
C162        O172   1.281       .  A
O163       Ni179   1.916       .  S
O163        C169   1.275       .  A
O164        C169   1.279       .  A
C165        C286   1.478       .  S
O166        C168   1.270       .  A
O167       Ni178   1.934       .  S
C168        C234   1.487       .  S
C168        O174   1.272       .  A
C169        C270   1.474       .  S
H170        O171   0.966   1_554  S
O171       Ni179   1.916   1_556  S
O171       Ni173   1.912       .  S
O171       Ni178   1.913       .  S
O172       Ni173   1.965       .  S
Ni173       O177   1.909       .  S
Ni173       O175   1.904       .  S
O174       Ni179   1.931       .  S
C176        C306   1.479       .  S
C176        O177   1.267       .  A
O181       Ni187   1.938       .  S
O181        C202   1.275       .  A
O182       Ni205   1.940       .  S
O182        C191   1.273       .  A
O183       Ni187   1.916       .  S
O183       Ni205   1.922       .  S
O183       Ni199   1.914       .  S
O183        H206   0.967       .  S
C184        C340   1.460       .  S
C184        O201   1.276       .  A
C184        O193   1.276       .  A
O185       Ni204   1.911       .  S
O185        C191   1.267       .  A
O186       Ni204   1.910       .  S
O186        C188   1.268       .  A
Ni187       O190   1.929       .  S
Ni187       O192   1.911       .  S
C188        C394   1.488       .  S
C188        O198   1.273       .  A
O189       Ni205   1.897       .  S
O189        C195   1.271       .  A
O190        C195   1.273       .  A
C191        C214   1.493       .  S
O192        C194   1.271       .  A
O193       Ni204   1.902       .  S
C194        C414   1.492       .  S
C194        O200   1.280       .  A
C195        C322   1.461       .  S
H196        O197   0.966       .  S
O197       Ni205   1.901       .  S
O197       Ni199   1.903       .  S
O197       Ni204   1.904       .  S
O198       Ni199   1.937       .  S
Ni199       O203   1.914       .  S
Ni199       O201   1.915       .  S
O200       Ni205   1.956       .  S
C202        C232   1.489       .  S
C202        O203   1.270       .  A
C207        C208   1.402       .  A
C207        C212   1.414       .  A
C207        C215   1.500       .  S
C208        C209   1.398       .  A
C208        H217   1.083       .  S
C209        C210   1.406       .  A
C209        H218   1.083       .  S
C210        C211   1.408       .  A
C210        C213   1.496       .  S
C211        C212   1.409       .  A
C211        H219   1.082       .  S
C212        H220   1.081       .  S
C213        H221   1.087       .  S
C213        C214   1.355       .  D
C214        H222   1.085       .  S
C215        H223   1.087       .  S
C215        C216   1.347       .  D
C216        H224   1.084       .  S
C225        C226   1.408       .  A
C225        C230   1.407       .  A
C225        C233   1.496       .  S
C226        C227   1.407       .  A
C226        H235   1.083       .  S
C227        C228   1.408       .  A
C227        H236   1.082       .  S
C228        C229   1.404       .  A
C228        C231   1.492       .  S
C229        C230   1.399       .  A
C229        H237   1.083       .  S
C230        H238   1.082       .  S
C231        H239   1.087       .  S
C231        C232   1.351       .  D
C232        H240   1.086       .  S
C233        H241   1.087       .  S
C233        C234   1.352       .  D
C234        H242   1.086       .  S
C243        C244   1.403   1_556  A
C243        C248   1.405       .  A
C243        C251   1.484       .  S
C244        C245   1.399       .  A
C244        H253   1.083       .  S
C245        C246   1.408   1_554  A
C245        H254   1.080       .  S
C246        C247   1.404       .  A
C246        C249   1.485       .  S
C247        C248   1.396       .  A
C247        H255   1.084       .  S
C248        H256   1.082       .  S
C249        H257   1.087       .  S
C249        C250   1.346   1_556  D
C250        H258   1.083       .  S
C251        H259   1.087       .  S
C251        C252   1.345       .  D
C252        H260   1.086       .  S
C261        C262   1.402   1_554  A
C261        C266   1.409       .  A
C261        C269   1.483       .  S
C262        C263   1.392   1_556  A
C262        H271   1.084       .  S
C263        C264   1.406       .  A
C263        H272   1.082   1_554  S
C264        C265   1.402       .  A
C264        C267   1.481       .  S
C265        C266   1.398       .  A
C265        H273   1.083       .  S
C266        H274   1.080       .  S
C267        H275   1.087       .  S
C267        C268   1.342   1_554  D
C268        H276   1.085       .  S
C269        H277   1.087       .  S
C269        C270   1.344       .  D
C270        H278   1.083       .  S
C279        C280   1.404       .  A
C279        C284   1.406   1_554  A
C279        C287   1.483       .  S
C280        C281   1.401       .  A
C280        H289   1.083       .  S
C281        C282   1.407   1_554  A
C281        H290   1.082       .  S
C282        C283   1.402       .  A
C282        C285   1.480       .  S
C283        C284   1.393       .  A
C283        H291   1.084       .  S
C284        H292   1.082       .  S
C285        H293   1.087       .  S
C285        C286   1.346   1_556  D
C286        H294   1.085       .  S
C287        H295   1.087       .  S
C287        C288   1.345   1_554  D
C288        H296   1.085       .  S
C297        C298   1.403       .  A
C297        C302   1.409   1_554  A
C297        C305   1.487       .  S
C298        C299   1.395       .  A
C298        H307   1.084       .  S
C299        C300   1.406   1_554  A
C299        H308   1.082       .  S
C300        C301   1.404       .  A
C300        C303   1.485       .  S
C301        C302   1.402       .  A
C301        H309   1.083       .  S
C302        H310   1.081       .  S
C303        H311   1.087       .  S
C303        C304   1.347   1_556  D
C304        H312   1.085       .  S
C305        H313   1.087       .  S
C305        C306   1.346   1_554  D
C306        H314   1.084       .  S
C315        C316   1.403       .  A
C315        C320   1.410       .  A
C315        C323   1.481       .  S
C316        C317   1.392       .  A
C316        H325   1.084       .  S
C317        C318   1.403       .  A
C317        H326   1.083       .  S
C318        C319   1.399       .  A
C318        C321   1.472       .  S
C319        C320   1.394       .  A
C319        H327   1.084       .  S
C320        H328   1.079       .  S
C321        H329   1.087       .  S
C321        C322   1.339       .  D
C322        H330   1.087       .  S
C323        H331   1.088       .  S
C323        C324   1.344       .  D
C324        H332   1.082       .  S
C333        C334   1.400       .  A
C333        C338   1.405       .  A
C333        C341   1.466       .  S
C334        C335   1.390       .  A
C334        H343   1.084       .  S
C335        C336   1.402       .  A
C335        H344   1.083       .  S
C336        C337   1.399       .  A
C336        C339   1.462       .  S
C337        C338   1.391       .  A
C337        H345   1.084       .  S
C338        H346   1.082       .  S
C339        H347   1.087       .  S
C339        C340   1.340       .  D
C340        H348   1.087       .  S
C341        H349   1.088       .  S
C341        C342   1.340       .  D
C342        H350   1.086       .  S
C351        C352   1.409       .  A
C351        C356   1.409   1_545  A
C351        C359   1.504       .  S
C352        C353   1.405       .  A
C352        H361   1.083       .  S
C353        C354   1.409       .  A
C353        H362   1.081       .  S
C354        C355   1.407   1_545  A
C354        C357   1.503       .  S
C355        C356   1.405       .  A
C355        H363   1.083       .  S
C356        H364   1.080       .  S
C357        H365   1.087   1_545  S
C357        C358   1.354       .  D
C358        H366   1.084       .  S
C359        H367   1.087       .  S
C359        C360   1.356       .  D
C360        H368   1.083   1_545  S
C369        C370   1.406   1_545  A
C369        C374   1.408       .  A
C369        C377   1.498   1_545  S
C370        C371   1.405       .  A
C370        H379   1.083       .  S
C371        C372   1.410   1_565  A
C371        H380   1.081       .  S
C372        C373   1.407       .  A
C372        C375   1.501       .  S
C373        C374   1.404       .  A
C373        H381   1.083       .  S
C374        H382   1.082       .  S
C375        H383   1.087       .  S
C375        C376   1.352   1_545  D
C376        H384   1.085       .  S
C377        H385   1.087       .  S
C377        C378   1.350       .  D
C378        H386   1.086   1_565  S
C387        C388   1.406       .  A
C387        C392   1.408       .  A
C387        C395   1.495       .  S
C388        C389   1.402       .  A
C388        H397   1.083       .  S
C389        C390   1.407       .  A
C389        H398   1.082       .  S
C390        C391   1.406       .  A
C390        C393   1.493       .  S
C391        C392   1.403       .  A
C391        H399   1.083       .  S
C392        H400   1.081       .  S
C393        H401   1.087       .  S
C393        C394   1.352       .  D
C394        H402   1.085       .  S
C395        H403   1.087       .  S
C395        C396   1.350       .  D
C396        H404   1.085       .  S
C405        C406   1.408       .  A
C405        C410   1.408       .  A
C405        C413   1.501       .  S
C406        C407   1.405       .  A
C406        H415   1.083       .  S
C407        C408   1.407       .  A
C407        H416   1.082       .  S
C408        C409   1.407       .  A
C408        C411   1.499       .  S
C409        C410   1.404       .  A
C409        H417   1.083       .  S
C410        H418   1.081       .  S
C411        H419   1.087       .  S
C411        C412   1.354       .  D
C412        H420   1.085       .  S
C413        H421   1.087       .  S
C413        C414   1.355       .  D
C414        H422   1.084       .  S
C423        C424   1.403       .  A
C423        C428   1.405   1_655  A
C423        C431   1.480       .  S
C424        C425   1.401       .  A
C424        H433   1.083       .  S
C425        C426   1.408       .  A
C425        H434   1.081       .  S
C426        C427   1.401   1_655  A
C426        C429   1.479       .  S
C427        C428   1.390       .  A
C427        H435   1.084       .  S
C428        H436   1.082       .  S
C429        H437   1.087   1_655  S
C429        C430   1.345       .  D
C430        H438   1.085       .  S
C431        H439   1.087       .  S
C431        C432   1.344   1_655  D
C432        H440   1.086       .  S
C441        C442   1.402       .  A
C441        C446   1.406       .  A
C441        C449   1.479       .  S
C442        C443   1.397       .  A
C442        H451   1.083       .  S
C443        C444   1.407       .  A
C443        H452   1.082       .  S
C444        C445   1.402       .  A
C444        C447   1.480       .  S
C445        C446   1.396       .  A
C445        H453   1.083       .  S
C446        H454   1.082       .  S
C447        H455   1.088       .  S
C447        C448   1.343       .  D
C448        H456   1.085       .  S
C449        H457   1.087       .  S
C449        C450   1.344   1_455  D
C450        H458   1.086       .  S
C459        C460   1.404       .  A
C459        C464   1.408       .  A
C459        C467   1.489       .  S
C460        C461   1.397       .  A
C460        H469   1.084       .  S
C461        C462   1.408       .  A
C461        H470   1.080       .  S
C462        C463   1.404       .  A
C462        C465   1.490       .  S
C463        C464   1.400       .  A
C463        H471   1.083       .  S
C464        H472   1.080       .  S
C465        H473   1.087       .  S
C465        C466   1.346       .  D
C466        H474   1.084   1_545  S
C467        H475   1.087       .  S
C467        C468   1.349       .  D
C468        H476   1.083       .  S
C477        C478   1.405       .  A
C477        C482   1.410       .  A
C477        C485   1.493       .  S
C478        C479   1.400       .  A
C478        H487   1.083       .  S
C479        C480   1.408       .  A
C479        H488   1.081       .  S
C480        C481   1.402       .  A
C480        C483   1.487       .  S
C481        C482   1.396       .  A
C481        H489   1.084       .  S
C482        H490   1.079       .  S
C483        H491   1.087       .  S
C483        C484   1.346       .  D
C484        H492   1.084       .  S
C485        H493   1.088       .  S
C485        C486   1.346       .  D
C486        H494   1.081       .  S
C495        C496   1.409       .  A
C495        C500   1.409   1_655  A
C495        C503   1.510       .  S
C496        C497   1.410       .  A
C496        H505   1.083       .  S
C497        C498   1.410       .  A
C497        H506   1.081       .  S
C498        C499   1.411   1_655  A
C498        C501   1.514   1_655  S
C499        C500   1.411       .  A
C499        H507   1.083       .  S
C500        H508   1.082       .  S
C501        H509   1.086       .  S
C501        C502   1.360   1_455  D
C502        H510   1.085       .  S
C503        H511   1.085       .  S
C503        C504   1.358       .  D
C504        H512   1.086   1_655  S
C513        C514   1.411       .  A
C513        C518   1.409       .  A
C513        C521   1.511       .  S
C514        C515   1.412       .  A
C514        H523   1.083       .  S
C515        C516   1.409       .  A
C515        H524   1.082       .  S
C516        C517   1.409   1_655  A
C516        C519   1.510       .  S
C517        C518   1.410   1_455  A
C517        H525   1.083       .  S
C518        H526   1.082   1_655  S
C519        H527   1.086       .  S
C519        C520   1.358       .  D
C520        H528   1.085       .  S
C521        H529   1.086       .  S
C521        C522   1.361       .  D
C522        H530   1.086   1_655  S
