geometry optimzed in LAMMPS
_audit_creation_date              2020-12-01 
_audit_creation_method            'lammps2cif' 
_symmetry_space_group_name_H-M    'P1' 
_symmetry_Int_Tables_number       1 
_symmetry_cell_setting            triclinic 
loop_ 
_symmetry_equiv_pos_as_xyz 
  x,y,z 
_cell_length_a                    41.79001929 
_cell_length_b                    41.32313838913976 
_cell_length_c                    38.49137904764848 
_cell_angle_alpha                 89.88093873574793 
_cell_angle_beta                  89.66917590727213 
_cell_angle_gamma                 90.67305948075148 
loop_ 
_atom_site_label 
_atom_site_type_symbol 
_atom_site_fract_x 
_atom_site_fract_y 
_atom_site_fract_z 
_atom_site_charge 
O1          O  0.41338800  0.02754623  0.61831214    -0.74800
O2          O  0.32395018  0.01783389  0.64868736    -0.74800
O3          O  0.38293785  0.02903525  0.67997524    -0.74900
O4          O  0.35554228  0.02165901  0.58670429    -0.74900
O5          O  0.35745374  0.47091038  0.58834194    -0.74800
O6          O  0.39275228  0.97623473  0.68270197    -0.74800
O7          O  0.33126262  0.46720003  0.65350942    -0.74800
O8          O  0.41511218  0.47370888  0.61863662    -0.74900
Ni9        Ni  0.36847184  0.02596122  0.63347959     1.25400
Ni10       Ni  0.37358928  0.46982952  0.63617668     1.25400
C11         C  0.42929853  0.00123932  0.61351893     0.87400
C12         C  0.31345224  0.98872328  0.65456450     0.87300
C13         C  0.39556317  0.00511782  0.69536510     0.87400
C14         C  0.35342904  0.49803083  0.57218553     0.87500
O15         O  0.47066057  0.04155734  0.89036788    -0.74800
O16         O  0.45590507  0.13282592  0.86646523    -0.74800
O17         O  0.44580325  0.07331469  0.83476898    -0.74900
O18         O  0.47414165  0.09959978  0.92247607    -0.74900
O19         O  0.52394387  0.10751223  0.90348646    -0.74800
O20         O  0.49500020  0.07242833  0.81300671    -0.74800
O21         O  0.50409127  0.13317436  0.84189842    -0.74800
O22         O  0.52063206  0.04958156  0.87234359    -0.74900
Ni23       Ni  0.45970074  0.08670835  0.87896230     1.25400
Ni24       Ni  0.51261047  0.09101114  0.85671262     1.25400
C25         C  0.49945850  0.03115576  0.88527409     0.87400
C26         C  0.47946639  0.14835109  0.85174335     0.87300
C27         C  0.46469158  0.06568790  0.81019306     0.87400
C28         C  0.50278686  0.10819465  0.92829955     0.87500
O29         O  0.07435573  0.45258827  0.62889063    -0.74800
O30         O  0.16289746  0.44053303  0.65778784    -0.74800
O31         O  0.10286689  0.42690606  0.68605221    -0.74900
O32         O  0.13310662  0.46059489  0.60063692    -0.74900
O33         O  0.13399134  0.51075887  0.62173784    -0.74800
O34         O  0.10140887  0.47539274  0.71064249    -0.74800
O35         O  0.16145532  0.48937036  0.68184433    -0.74800
O36         O  0.07679104  0.50145469  0.65261001    -0.74900
Ni37       Ni  0.11830607  0.44325765  0.64294212     1.25400
Ni38       Ni  0.11866740  0.49589966  0.66780949     1.25400
C39         C  0.06162578  0.48035881  0.63524247     0.87400
C40         C  0.17729823  0.46480607  0.67229846     0.87300
C41         C  0.09517470  0.44461743  0.71180096     0.87400
C42         C  0.13779659  0.49070182  0.59623628     0.87500
O43         O  0.05411486  0.38488668  0.90228038    -0.74800
O44         O  0.04030776  0.29660043  0.86945581    -0.74800
O45         O  0.05519655  0.35605637  0.83964478    -0.74900
O46         O  0.04393409  0.32626837  0.93186909    -0.74900
O47         O  0.48996528  0.32950996  0.92518648    -0.74800
O48         O  0.00393399  0.36961342  0.83604366    -0.74800
O49         O  0.98874235  0.30807828  0.86326196    -0.74800
O50         O  0.00116987  0.39100410  0.90171218    -0.74900
Ni51       Ni  0.05025221  0.34042355  0.88573438     1.25400
Ni52       Ni  0.99432505  0.35026968  0.88199452     1.25400
C53         C  0.02901616  0.40215674  0.90754792     0.87400
C54         C  0.01130581  0.28760228  0.86263698     0.87300
C55         C  0.03284616  0.37057878  0.82378378     0.87400
C56         C  0.01647656  0.32523991  0.94627289     0.87500
O57         O  0.05309252  0.05511610  0.12017705    -0.74800
O58         O  0.03893126  0.14246101  0.15458169    -0.74800
O59         O  0.05441725  0.08332665  0.18364438    -0.74900
O60         O  0.04242003  0.11328714  0.09148568    -0.74900
O61         O  0.98992040  0.10383751  0.09489451    -0.74800
O62         O  0.00262731  0.07096547  0.18941084    -0.74800
O63         O  0.98708266  0.13021658  0.15973776    -0.74800
O64         O  0.00044080  0.04673653  0.12471068    -0.74900
Ni65       Ni  0.04907436  0.09913130  0.13759804     1.25400
Ni66       Ni  0.99314260  0.08782279  0.14266340     1.25400
C67         C  0.02801615  0.03708375  0.11592852     0.87400
C68         C  0.00982940  0.15090030  0.16114069     0.87300
C69         C  0.03163757  0.07020105  0.20094363     0.87400
C70         C  0.01510270  0.11196408  0.07708740     0.87500
O71         O  0.07803759  0.03334946  0.39711755    -0.74800
O72         O  0.16812643  0.02381495  0.37154620    -0.74800
O73         O  0.11149386  0.03774768  0.33758197    -0.74900
O74         O  0.13364774  0.02439651  0.43173092    -0.74900
O75         O  0.12892383  0.47345604  0.42937568    -0.74800
O76         O  0.09944253  0.98568925  0.33040379    -0.74800
O77         O  0.15785640  0.47143545  0.36518708    -0.74800
O78         O  0.07337673  0.48176478  0.39688828    -0.74900
Ni79       Ni  0.12340536  0.03170965  0.38456945     1.25400
Ni80       Ni  0.11504662  0.47601530  0.38071518     1.25400
C81         C  0.06087136  0.00720995  0.39945694     0.87400
C82         C  0.17767857  0.99503263  0.36398842     0.87300
C83         C  0.09790284  0.01547199  0.31993800     0.87400
C84         C  0.13463590  0.49935472  0.44723818     0.87500
O85         O  0.41756241  0.45631989  0.38618230    -0.74800
O86         O  0.32750599  0.44338125  0.36135872    -0.74800
O87         O  0.38651178  0.43240879  0.32980549    -0.74900
O88         O  0.35961078  0.46183505  0.41791661    -0.74900
O89         O  0.35538810  0.51249945  0.39883479    -0.74800
O90         O  0.38914634  0.48258903  0.30882525    -0.74800
O91         O  0.32884782  0.49256789  0.33791279    -0.74800
O92         O  0.41306944  0.50709231  0.36791281    -0.74900
Ni93       Ni  0.37282294  0.44655992  0.37427394     1.25400
Ni94       Ni  0.37135750  0.50038637  0.35240081     1.25400
C95         C  0.42977671  0.48484386  0.38090730     0.87400
C96         C  0.31298150  0.46757799  0.34735767     0.87300
C97         C  0.39462377  0.45196230  0.30561236     0.87400
C98         C  0.35273987  0.49123213  0.42346830     0.87500
O99         O  0.47062966  0.39185612  0.11676295    -0.74800
O100        O  0.45716886  0.30408734  0.15379655    -0.74800
O101        O  0.44554815  0.36701685  0.17720723    -0.74900
O102        O  0.47596970  0.33072199  0.09419055    -0.74900
O103        O  0.02691540  0.32741889  0.11891523    -0.74800
O104        O  0.49446491  0.37178222  0.19905184    -0.74800
O105        O  0.50515287  0.30839064  0.17786638    -0.74800
O106        O  0.52000365  0.38959988  0.13751074    -0.74900
Ni107      Ni  0.46034634  0.34844465  0.13520615     1.25400
Ni108      Ni  0.51296500  0.34953662  0.15826748     1.25400
C109        C  0.49913300  0.40413115  0.11989162     0.87400
C110        C  0.48129820  0.29093527  0.16908654     0.87300
C111        C  0.46411689  0.37764432  0.20082501     0.87400
C112        C  0.50522034  0.32415161  0.08962959     0.87500
C113        C  0.44363225  0.44501841  0.26707657    -0.30700
C114        C  0.41138879  0.43721540  0.27498635    -0.14700
C115        C  0.39784737  0.40955210  0.25929707     0.35900
C116        C  0.41611975  0.39025084  0.23685540    -0.26100
C117        C  0.44841593  0.39740499  0.22899877    -0.15400
C118        C  0.46216577  0.42563968  0.24398078     0.37000
N119        N  0.49457366  0.43477833  0.23556277    -0.89600
H120        H  0.45469419  0.46563601  0.27977224     0.18100
H121        H  0.40464306  0.36925289  0.22530555     0.18100
N122        N  0.36521623  0.40069049  0.26644544    -0.88600
H123        H  0.50111960  0.45589979  0.24879239     0.35500
H124        H  0.49543731  0.44042446  0.20907500     0.40600
H125        H  0.36483085  0.37732409  0.27692732     0.40200
H126        H  0.35291041  0.40006127  0.24287617     0.35100
C127        C  0.98051461  0.47506439  0.42021054    -0.26700
C128        C  0.46342749  0.49370035  0.38915324    -0.14700
C129        C  0.48024966  0.51804462  0.36970042     0.35900
C130        C  0.50798629  0.01940724  0.37536133    -0.26100
C131        C  0.02738515  0.50984400  0.41010517    -0.15400
C132        C  0.01265877  0.48312576  0.42722266     0.37000
N133        N  0.03116911  0.46318036  0.45002349    -0.89600
H134        H  0.96976086  0.45376121  0.43211885     0.18100
H135        H  0.01991259  0.04662098  0.36929612     0.18100
N136        N  0.46314033  0.02295172  0.33676154    -0.88600
H137        H  0.01706540  0.44436348  0.46028604     0.35500
H138        H  0.03827816  0.47754931  0.47099707     0.40600
H139        H  0.44828413  0.54821621  0.34694540     0.40200
H140        H  0.45529617  0.00425285  0.32054506     0.35100
C141        C  0.22856982  0.99307120  0.32880183    -0.26700
C142        C  0.21203836  0.48674256  0.35821662    -0.14700
C143        C  0.22608676  0.46046184  0.37617262     0.35900
C144        C  0.25838944  0.45244140  0.36994033    -0.26100
C145        C  0.27718715  0.46981887  0.34586355    -0.15400
C146        C  0.26222155  0.49447697  0.32612937     0.37000
N147        N  0.27604227  0.98841383  0.29129203    -0.89600
H148        H  0.21712483  0.00697691  0.30857124     0.18100
H149        H  0.26937679  0.43375107  0.38545892     0.18100
N150        N  0.20772560  0.44259531  0.40163052    -0.88600
H151        H  0.27762028  0.01357800  0.28873432     0.35500
H152        H  0.26717593  0.50782410  0.27587513     0.40600
H153        H  0.20235773  0.45841030  0.42195846     0.40200
H154        H  0.22128556  0.42398325  0.41231061     0.35100
C155        C  0.04752337  0.48387523  0.13052534    -0.26700
C156        C  0.02926295  0.00345019  0.10378867    -0.14700
C157        C  0.50010133  0.98746899  0.09190159     0.35900
C158        C  0.48700284  0.45717962  0.09134164    -0.26100
C159        C  0.50940063  0.43597764  0.10517473    -0.15400
C160        C  0.03950796  0.45164985  0.13766859     0.37000
N161        N  0.05913092  0.43435609  0.16167811    -0.89600
H162        H  0.06763737  0.49486748  0.14390995     0.18100
H163        H  0.46284407  0.44883070  0.08607884     0.18100
N164        N  0.48133071  0.00477882  0.06712254    -0.88600
H165        H  0.05928048  0.44687812  0.18526037     0.35500
H166        H  0.08251891  0.43415978  0.15188189     0.40600
H167        H  0.49688250  0.01554569  0.04900499     0.40200
H168        H  0.46853051  0.02293164  0.07961596     0.35100
C169        C  0.51611035  0.24344407  0.18188736    -0.26700
C170        C  0.48531905  0.25490450  0.17310951    -0.14700
C171        C  0.96299548  0.22967087  0.15868572     0.35900
C172        C  0.97151133  0.19676242  0.15565113    -0.26100
C173        C  0.00095764  0.18513056  0.16821716    -0.15400
C174        C  0.52440761  0.21066520  0.17883373     0.37000
N175        N  0.55630250  0.20083332  0.18672031    -0.89600
H176        H  0.53481389  0.26025826  0.18961271     0.18100
H177        H  0.95563227  0.18036313  0.14191390     0.18100
N178        N  0.93386989  0.24103245  0.14348729    -0.88600
H179        H  0.56115957  0.20731683  0.21241261     0.35500
H180        H  0.57209488  0.21375195  0.17055434     0.40600
H181        H  0.91916928  0.24895766  0.16374708     0.40200
H182        H  0.92154999  0.22205920  0.13133832     0.35100
C183        C  0.06537407  0.05835035  0.29125143    -0.26700
C184        C  0.07778154  0.02665366  0.28964741    -0.14700
C185        C  0.07005215  0.00776257  0.26023453     0.35900
C186        C  0.05185269  0.02153106  0.23280945    -0.26100
C187        C  0.04078925  0.05375187  0.23410411    -0.15400
C188        C  0.04730260  0.07199116  0.26430029     0.37000
N189        N  0.03717146  0.10497908  0.26802995    -0.89600
H190        H  0.07005075  0.07325148  0.31383620     0.18100
H191        H  0.04782887  0.00762305  0.20935998     0.18100
N192        N  0.09974439  0.48303005  0.25230020    -0.88600
H193        H  0.02203908  0.10594824  0.28972262     0.35500
H194        H  0.02349089  0.11243730  0.24693645     0.40600
H195        H  0.12333992  0.49020964  0.25732045     0.40200
H196        H  0.09906154  0.47594689  0.22625310     0.35100
C197        C  0.48849163  0.29976307  0.03374704    -0.26700
C198        C  0.51341739  0.31367262  0.05378257    -0.14700
C199        C  0.04172879  0.32661101  0.04080474     0.35900
C200        C  0.04261630  0.32708481  0.00422728    -0.26100
C201        C  0.01564616  0.31824759  0.98418611    -0.15400
C202        C  0.48876693  0.30121136  0.99721757     0.37000
N203        N  0.46207991  0.28908389  0.97754077    -0.89600
H204        H  0.46735193  0.29015455  0.04676459     0.18100
H205        H  0.06377333  0.33683815  0.99140651     0.18100
N206        N  0.06823764  0.33917639  0.06044974    -0.88600
H207        H  0.44444887  0.27946595  0.99408892     0.35500
H208        H  0.47027851  0.26991019  0.96233862     0.40600
H209        H  0.06091614  0.36070563  0.07212259     0.40200
H210        H  0.08731585  0.34537620  0.04395364     0.35100
C211        C  0.12130498  0.51942579  0.54333048    -0.26700
C212        C  0.14440246  0.50064210  0.55969289    -0.14700
C213        C  0.16583284  0.48263106  0.53852304     0.35900
C214        C  0.16190066  0.48195323  0.50212189    -0.26100
C215        C  0.13735732  0.49912681  0.48595139    -0.15400
C216        C  0.11698585  0.51849619  0.50712779     0.37000
N217        N  0.09045680  0.53625870  0.49335508    -0.89600
H218        H  0.10418071  0.53246074  0.55910648     0.18100
H219        H  0.17821166  0.46790626  0.48638505     0.18100
N220        N  0.19128517  0.46401192  0.55327620    -0.88600
H221        H  0.06959951  0.52733277  0.50529164     0.35500
H222        H  0.08728180  0.53210807  0.46697541     0.40600
H223        H  0.19290481  0.46783223  0.58002294     0.40200
H224        H  0.21281750  0.47285045  0.54278801     0.35100
C225        C  0.07988682  0.39335629  0.74284419    -0.26700
C226        C  0.07806729  0.42746660  0.74161952    -0.14700
C227        C  0.05735008  0.44261902  0.76581122     0.35900
C228        C  0.04020716  0.42353016  0.79088290    -0.26100
C229        C  0.04283310  0.38947056  0.79205126    -0.15400
C230        C  0.06259183  0.37450755  0.76719674     0.37000
N231        N  0.06562891  0.33986492  0.76736500    -0.89600
H232        H  0.09511530  0.38092128  0.72447995     0.18100
H233        H  0.02588120  0.43541582  0.81051985     0.18100
N234        N  0.05328828  0.47705557  0.76462525    -0.88600
H235        H  0.08116546  0.33235108  0.74766382     0.35500
H236        H  0.04314577  0.32991022  0.76168746     0.40600
H237        H  0.07488553  0.48782389  0.77223999     0.40200
H238        H  0.03600163  0.48414637  0.78270804     0.35100
C239        C  0.04117289  0.10861151  0.01854910    -0.26700
C240        C  0.01428184  0.11751227  0.03876482    -0.14700
C241        C  0.48307457  0.12638899  0.02221948     0.35900
C242        C  0.48255767  0.12691121  0.98565934    -0.26100
C243        C  0.50913661  0.11730999  0.96525412    -0.15400
C244        C  0.04052625  0.10886369  0.98184539     0.37000
N245        N  0.06711641  0.09690292  0.96207095    -0.89600
H246        H  0.06224236  0.09952441  0.03141529     0.18100
H247        H  0.46036933  0.13306839  0.97294316     0.18100
N248        N  0.45489642  0.13425271  0.04191675    -0.88600
H249        H  0.08544308  0.08955957  0.97858742     0.35500
H250        H  0.07636502  0.11623293  0.94743936     0.40600
H251        H  0.43598723  0.13990931  0.02539330     0.40200
H252        H  0.46003599  0.15517846  0.05615643     0.35100
C253        C  0.49252424  0.48006036  0.92489693    -0.26700
C254        C  0.51030002  0.99783813  0.89334473    -0.14700
C255        C  0.03711668  0.98490276  0.87335091     0.35900
C256        C  0.04892144  0.45589676  0.89309133    -0.26100
C257        C  0.03051924  0.43685275  0.91548960    -0.15400
C258        C  0.50170381  0.44794148  0.93150915     0.37000
N259        N  0.48384153  0.42818569  0.95572336    -0.89600
H260        H  0.47200507  0.49001675  0.93827478     0.18100
H261        H  0.06809754  0.44504307  0.87817726     0.18100
N262        N  0.05149618  0.00032103  0.84360940    -0.88600
H263        H  0.46563749  0.44156361  0.96740121     0.35500
H264        H  0.49946205  0.42153851  0.97555509     0.40600
H265        H  0.06513440  0.02029628  0.85151471     0.40200
H266        H  0.03358171  0.00738245  0.82642754     0.35100
C267        C  0.50737393  0.19761442  0.82823831    -0.26700
C268        C  0.48192852  0.18449778  0.84861585    -0.14700
C269        C  0.46515168  0.20555759  0.87081194     0.35900
C270        C  0.97425105  0.24057640  0.87338017    -0.26100
C271        C  0.00212281  0.25292290  0.85681390    -0.15400
C272        C  0.01971287  0.23198981  0.83540984     0.37000
N273        N  0.04751180  0.24295709  0.81666835    -0.89600
H274        H  0.52072800  0.18215708  0.81083275     0.18100
H275        H  0.96031944  0.25655745  0.88966385     0.18100
N276        N  0.43952739  0.19341543  0.89239526    -0.88600
H277        H  0.06469588  0.25076724  0.83448840     0.35500
H278        H  0.04110578  0.26258924  0.80111023     0.40600
H279        H  0.42085289  0.18637794  0.87600293     0.40200
H280        H  0.43056783  0.21177727  0.90822761     0.35100
C281        C  0.32945225  0.47597981  0.51691693    -0.26700
C282        C  0.34770414  0.49975330  0.53384791    -0.14700
C283        C  0.36154471  0.52513459  0.51350790     0.35900
C284        C  0.35960604  0.52446924  0.47697146    -0.26100
C285        C  0.34390959  0.49903991  0.46001415    -0.15400
C286        C  0.32697553  0.47580906  0.48038646     0.37000
N287        N  0.30803997  0.45125528  0.46378724    -0.89600
H288        H  0.31759346  0.45711742  0.53196383     0.18100
H289        H  0.37277232  0.54240802  0.46187927     0.18100
N290        N  0.37953143  0.55064900  0.52964967    -0.88600
H291        H  0.28452860  0.45311204  0.47294915     0.35500
H292        H  0.31669519  0.42867704  0.47129925     0.40600
H293        H  0.37456805  0.06609667  0.52025697     0.40200
H294        H  0.40286686  0.55032215  0.51972058     0.35100
C295        C  0.98274071  0.02317811  0.62638590    -0.26700
C296        C  0.46413110  0.49934262  0.60839627    -0.14700
C297        C  0.47812485  0.47040223  0.59599674     0.35900
C298        C  0.51048370  0.46409564  0.60236690    -0.26100
C299        C  0.02892531  0.48920089  0.62354247    -0.15400
C300        C  0.01559167  0.52010575  0.63125848     0.37000
N301        N  0.03388032  0.04021430  0.65134417    -0.89600
H302        H  0.47330269  0.04464070  0.63425227     0.18100
H303        H  0.52022212  0.44098992  0.59466220     0.18100
N304        N  0.45915800  0.44663887  0.57816679    -0.88600
H305        H  0.01983409  0.05959916  0.65945546     0.35500
H306        H  0.05132107  0.55301449  0.62670661     0.40600
H307        H  0.46014086  0.42493195  0.59211810     0.40200
H308        H  0.46951696  0.44280897  0.55375136     0.35100
C309        C  0.23118968  0.45120514  0.64891267    -0.26700
C310        C  0.21302783  0.46749333  0.67389891    -0.14700
C311        C  0.22862111  0.49147260  0.69443576     0.35900
C312        C  0.26063802  0.99427190  0.68654103    -0.26100
C313        C  0.27853165  0.48458214  0.66183899    -0.15400
C314        C  0.26340672  0.45955501  0.64266001     0.37000
N315        N  0.28046765  0.44329219  0.61555743    -0.89600
H316        H  0.21987956  0.43318162  0.63250184     0.18100
H317        H  0.27163234  0.01207480  0.70346331     0.18100
N318        N  0.21094578  0.99891650  0.72037877    -0.88600
H319        H  0.26818968  0.44672586  0.59226704     0.35500
H320        H  0.28024194  0.41852690  0.62118674     0.40600
H321        H  0.21223344  0.53227843  0.71679632     0.40200
H322        H  0.22303727  0.99370853  0.74339436     0.35100
C323        C  0.41682401  0.03756737  0.78438738    -0.26700
C324        C  0.44925696  0.04747916  0.78024507    -0.14700
C325        C  0.46482103  0.03882785  0.74894773     0.35900
C326        C  0.44747370  0.02180439  0.72277645    -0.26100
C327        C  0.41482501  0.01299803  0.72696960    -0.15400
C328        C  0.39965070  0.02088757  0.75859339     0.37000
N329        N  0.36640845  0.01349513  0.76511218    -0.89600
H330        H  0.40395173  0.04315810  0.80808320     0.18100
H331        H  0.45905109  0.01689612  0.69811888     0.18100
N332        N  0.49771259  0.04792553  0.74330426    -0.88600
H333        H  0.36523043  0.99813501  0.78671247     0.35500
H334        H  0.35615019  0.00059177  0.74463667     0.40600
H335        H  0.49886683  0.07318381  0.74189510     0.40200
H336        H  0.50572658  0.03930352  0.71930694     0.35100
O337        O  0.41414096  0.52751087  0.62033139    -0.74800
O338        O  0.32462423  0.52051521  0.65055818    -0.74800
O339        O  0.38363322  0.52833492  0.68209123    -0.74900
O340        O  0.35616730  0.52471895  0.58841953    -0.74900
O341        O  0.35859992  0.96792202  0.58835883    -0.74800
O342        O  0.39134331  0.47510521  0.68323720    -0.74800
O343        O  0.33248857  0.96493696  0.65350573    -0.74800
O344        O  0.41614940  0.97377475  0.61814330    -0.74900
Ni345      Ni  0.36926809  0.52722601  0.63542164     1.25400
Ni346      Ni  0.37484181  0.96880927  0.63605401     1.25400
C347        C  0.42921778  0.50080654  0.61494542     0.87400
C348        C  0.31320839  0.49167446  0.65576416     0.87300
C349        C  0.39477015  0.50343425  0.69709660     0.87400
C350        C  0.35376448  0.99444701  0.57140781     0.87500
O351        O  0.46837911  0.54153363  0.89568901    -0.74800
O352        O  0.45125638  0.63135440  0.86811210    -0.74800
O353        O  0.44225562  0.57013550  0.83880545    -0.74900
O354        O  0.47110403  0.60092320  0.92512132    -0.74900
O355        O  0.52042884  0.60903569  0.90472817    -0.74800
O356        O  0.49127582  0.57006280  0.81651578    -0.74800
O357        O  0.49906647  0.63201837  0.84265062    -0.74800
O358        O  0.51784591  0.55001928  0.87645444    -0.74900
Ni359      Ni  0.45628143  0.58584001  0.88237273     1.25400
Ni360      Ni  0.50878117  0.59060810  0.85907269     1.25400
C361        C  0.49735113  0.53164097  0.89068888     0.87400
C362        C  0.47438957  0.64699462  0.85275110     0.87300
C363        C  0.46117309  0.56239239  0.81420479     0.87400
C364        C  0.49977249  0.61011553  0.92996702     0.87500
O365        O  0.07354058  0.94874051  0.62525972    -0.74800
O366        O  0.16274715  0.93508727  0.65280890    -0.74800
O367        O  0.10243210  0.92079932  0.68131640    -0.74900
O368        O  0.13236250  0.95686978  0.59687788    -0.74900
O369        O  0.13425099  0.00636672  0.61970532    -0.74800
O370        O  0.10114836  0.96873820  0.70719536    -0.74800
O371        O  0.16144823  0.98294972  0.67895285    -0.74800
O372        O  0.07699567  0.99695164  0.65023120    -0.74900
Ni373      Ni  0.11774363  0.93844172  0.63860620     1.25400
Ni374      Ni  0.11874207  0.99032833  0.66517739     1.25400
C375        C  0.06124794  0.97658358  0.63253384     0.87400
C376        C  0.17731565  0.95883383  0.66821520     0.87300
C377        C  0.09470754  0.93799010  0.70746790     0.87400
C378        C  0.13756291  0.98699049  0.59354662     0.87500
O379        O  0.05663963  0.88296182  0.89642949    -0.74800
O380        O  0.04098524  0.79283953  0.87042832    -0.74800
O381        O  0.05569302  0.84995047  0.83610323    -0.74900
O382        O  0.04706320  0.82634926  0.93070263    -0.74900
O383        O  0.49089500  0.83008670  0.92649893    -0.74800
O384        O  0.00464126  0.86432099  0.83329885    -0.74800
O385        O  0.98941940  0.80484830  0.86494332    -0.74800
O386        O  0.00371155  0.88926992  0.89754908    -0.74900
Ni387      Ni  0.05197206  0.83746096  0.88335065     1.25400
Ni388      Ni  0.99606095  0.84770283  0.88079018     1.25400
C389        C  0.03173288  0.90060200  0.90149552     0.87400
C390        C  0.01168343  0.78412994  0.86471008     0.87300
C391        C  0.03320414  0.86400509  0.82001435     0.87400
C392        C  0.02000420  0.82611424  0.94598269     0.87500
O393        O  0.05363729  0.55474287  0.12131750    -0.74800
O394        O  0.04465685  0.64354783  0.15399777    -0.74800
O395        O  0.05812986  0.58380324  0.18374512    -0.74900
O396        O  0.04523742  0.61331377  0.09142864    -0.74900
O397        O  0.99247073  0.60720533  0.09677632    -0.74800
O398        O  0.00604674  0.57377866  0.19099717    -0.74800
O399        O  0.99271842  0.63356080  0.16168876    -0.74800
O400        O  0.00073631  0.54934502  0.12661570    -0.74900
Ni401      Ni  0.05231357  0.59937290  0.13761202     1.25400
Ni402      Ni  0.99614680  0.59097337  0.14447150     1.25400
C403        C  0.02767146  0.53774124  0.11847954     0.87400
C404        C  0.01622844  0.65337522  0.16182844     0.87300
C405        C  0.03527048  0.57150793  0.20164069     0.87400
C406        C  0.01747162  0.61401176  0.07805337     0.87500
O407        O  0.07935895  0.53537967  0.39954401    -0.74800
O408        O  0.16840832  0.52412110  0.37062846    -0.74800
O409        O  0.11068373  0.53763057  0.33858015    -0.74900
O410        O  0.13595920  0.52690330  0.43239070    -0.74900
O411        O  0.12826911  0.97092223  0.42635227    -0.74800
O412        O  0.09951882  0.48510224  0.33318593    -0.74800
O413        O  0.15784017  0.97148654  0.36249869    -0.74800
O414        O  0.07280303  0.97970599  0.39353765    -0.74900
Ni415      Ni  0.12423292  0.53287739  0.38527681     1.25400
Ni416      Ni  0.11475803  0.97501460  0.37766528     1.25400
C417        C  0.06198752  0.50948609  0.40294563     0.87400
C418        C  0.17776848  0.49496537  0.36444612     0.87300
C419        C  0.09757763  0.51453926  0.32175436     0.87400
C420        C  0.13310001  0.99630904  0.44532382     0.87500
O421        O  0.41535889  0.94718635  0.38740273    -0.74800
O422        O  0.32459437  0.93477882  0.36471976    -0.74800
O423        O  0.38316521  0.92125771  0.33293850    -0.74900
O424        O  0.35790054  0.95471486  0.41954521    -0.74900
O425        O  0.35289824  0.00435147  0.39771246    -0.74800
O426        O  0.38748200  0.97044988  0.30979837    -0.74800
O427        O  0.32677439  0.98219414  0.33730235    -0.74800
O428        O  0.41053700  0.99744720  0.36777647    -0.74900
Ni429      Ni  0.37022132  0.93751717  0.37667120     1.25400
Ni430      Ni  0.36913600  0.99027465  0.35205251     1.25400
C431        C  0.42748412  0.97558410  0.38104961     0.87400
C432        C  0.31049192  0.95842420  0.34915703     0.87300
C433        C  0.39256741  0.93962676  0.30823730     0.87400
C434        C  0.35083225  0.98424208  0.42350341     0.87500
O435        O  0.47353777  0.88981364  0.12656838    -0.74800
O436        O  0.46431649  0.79845616  0.15459483    -0.74800
O437        O  0.45071151  0.85828265  0.18392173    -0.74900
O438        O  0.48071112  0.83087579  0.09697597    -0.74900
O439        O  0.03178339  0.83108246  0.11955933    -0.74800
O440        O  0.50013443  0.86518016  0.20390233    -0.74800
O441        O  0.51202761  0.80360865  0.17922315    -0.74800
O442        O  0.52419384  0.88626755  0.14294471    -0.74900
Ni443      Ni  0.46531641  0.84429033  0.14007051     1.25400
Ni444      Ni  0.51845303  0.84540297  0.16150723     1.25400
C445        C  0.50179039  0.90261036  0.13024351     0.87400
C446        C  0.48889411  0.78573313  0.16949881     0.87300
C447        C  0.46952263  0.86890829  0.20721524     0.87400
C448        C  0.50982060  0.82420277  0.09146693     0.87500
C449        C  0.44085028  0.93669163  0.26788053    -0.30700
C450        C  0.41139759  0.92358758  0.27975631    -0.14700
C451        C  0.40346568  0.89158030  0.26982266     0.35900
C452        C  0.42429578  0.87368328  0.24872157    -0.26100
C453        C  0.45357708  0.88652455  0.23654191    -0.15400
C454        C  0.46187754  0.91861390  0.24620398     0.37000
N455        N  0.49118035  0.93297978  0.23355280    -0.89600
H456        H  0.44782054  0.96077883  0.27612210     0.18100
H457        H  0.41693847  0.84954240  0.24088049     0.18100
N458        N  0.37383211  0.87702582  0.28094918    -0.88600
H459        H  0.49380948  0.95652891  0.24308839     0.35500
H460        H  0.48945086  0.93502343  0.20655237     0.40600
H461        H  0.37903931  0.85595288  0.29479660     0.40200
H462        H  0.36090202  0.87037580  0.25885816     0.35100
C463        C  0.97845048  0.97338097  0.41521691    -0.26700
C464        C  0.46124146  0.98506064  0.38807409    -0.14700
C465        C  0.47696379  0.00935878  0.36746281     0.35900
C466        C  0.51171650  0.52624275  0.37808860    -0.26100
C467        C  0.02601244  0.00719879  0.40492143    -0.15400
C468        C  0.01074876  0.98086939  0.42221748     0.37000
N469        N  0.02875351  0.96084018  0.44541332    -0.89600
H470        H  0.96708447  0.95273010  0.42778129     0.18100
H471        H  0.01999314  0.55063661  0.37668032     0.18100
N472        N  0.46713873  0.53332062  0.33955966    -0.88600
H473        H  0.01429639  0.94230081  0.45568601     0.35500
H474        H  0.03586964  0.97526121  0.46633455     0.40600
H475        H  0.44410263  0.03783796  0.34357747     0.40200
H476        H  0.45909980  0.51552317  0.32231183     0.35100
C477        C  0.23021113  0.50306395  0.33292537    -0.26700
C478        C  0.21206754  0.98671726  0.35989993    -0.14700
C479        C  0.22669843  0.96699888  0.38523449     0.35900
C480        C  0.25773544  0.95487383  0.37951782    -0.26100
C481        C  0.27493855  0.96225390  0.34906237    -0.15400
C482        C  0.25974470  0.98115042  0.32325322     0.37000
N483        N  0.27954188  0.51114228  0.29916028    -0.89600
H484        H  0.21942592  0.52230317  0.31800974     0.18100
H485        H  0.26926626  0.94125939  0.39990660     0.18100
N486        N  0.20996251  0.95973696  0.41708181    -0.88600
H487        H  0.27967488  0.53586175  0.30490913     0.35500
H488        H  0.26207163  0.97953925  0.27089388     0.40600
H489        H  0.20709004  0.98155994  0.43037245     0.40200
H490        H  0.22372238  0.94491845  0.43302994     0.35100
C491        C  0.05214096  0.98361395  0.11845027    -0.26700
C492        C  0.02749735  0.50296865  0.11057702    -0.14700
C493        C  0.49497994  0.48990229  0.08634397     0.35900
C494        C  0.49282387  0.95464984  0.09778120    -0.26100
C495        C  0.51049284  0.93671371  0.12166813    -0.15400
C496        C  0.04539405  0.95083214  0.12399800     0.37000
N497        N  0.06949309  0.93159544  0.14017004    -0.89600
H498        H  0.07383434  0.99409097  0.12919001     0.18100
H499        H  0.47290948  0.94342907  0.08429624     0.18100
N500        N  0.47144108  0.51063144  0.07118290    -0.88600
H501        H  0.07513036  0.94193853  0.16418052     0.35500
H502        H  0.09002734  0.93242995  0.12452446     0.40600
H503        H  0.48104314  0.53358163  0.06582198     0.40200
H504        H  0.45277073  0.51323066  0.08912047     0.35100
C505        C  0.52672515  0.73982065  0.17379527    -0.26700
C506        C  0.49451103  0.75005437  0.17228406    -0.14700
C507        C  0.96804718  0.73139326  0.17042882     0.35900
C508        C  0.97645390  0.69840041  0.16777372    -0.26100
C509        C  0.00873392  0.68813807  0.16907742    -0.15400
C510        C  0.53518831  0.70711715  0.17188306     0.37000
N511        N  0.56829540  0.69854867  0.17186929    -0.89600
H512        H  0.54607138  0.75746514  0.17487850     0.18100
H513        H  0.95756977  0.68073006  0.16342696     0.18100
N514        N  0.93521438  0.74100440  0.16794816    -0.88600
H515        H  0.57858405  0.70742898  0.19468953     0.35500
H516        H  0.57949530  0.71016529  0.15083773     0.40600
H517        H  0.92873750  0.75113696  0.19180710     0.40200
H518        H  0.92031936  0.72079355  0.16437374     0.35100
C519        C  0.05732002  0.55137215  0.29549066    -0.26700
C520        C  0.07744860  0.52437610  0.29117263    -0.14700
C521        C  0.07971946  0.51057874  0.25781993     0.35900
C522        C  0.06339028  0.52510403  0.22957435    -0.26100
C523        C  0.04451298  0.55309618  0.23370747    -0.15400
C524        C  0.04094409  0.56578042  0.26757771     0.37000
N525        N  0.02260289  0.59430560  0.27448465    -0.89600
H526        H  0.05509604  0.56225517  0.32097828     0.18100
H527        H  0.06668315  0.51542528  0.20370201     0.18100
N528        N  0.08169941  0.97531084  0.25751676    -0.88600
H529        H  0.00403179  0.58767883  0.29147450     0.35500
H530        H  0.01175667  0.60304511  0.25205587     0.40600
H531        H  0.10667203  0.97668209  0.25608708     0.40200
H532        H  0.07395657  0.96467461  0.23436731     0.35100
C533        C  0.49226701  0.80055687  0.03551136    -0.26700
C534        C  0.51725845  0.81501286  0.05497303    -0.14700
C535        C  0.04663934  0.83070056  0.04038711     0.35900
C536        C  0.04675471  0.83128193  0.00368936    -0.26100
C537        C  0.02009475  0.82041601  0.98422586    -0.15400
C538        C  0.49177439  0.80193067  0.99897670     0.37000
N539        N  0.46534176  0.78842431  0.97992270    -0.89600
H540        H  0.47177868  0.79014764  0.04904943     0.18100
H541        H  0.06692908  0.84243044  0.99029421     0.18100
N542        N  0.07256761  0.84512348  0.05948847    -0.88600
H543        H  0.44846891  0.77806955  0.99688759     0.35500
H544        H  0.47418187  0.76957465  0.96467762     0.40600
H545        H  0.06389441  0.86588050  0.07165329     0.40200
H546        H  0.09073637  0.85293131  0.04255309     0.35100
C547        C  0.11958645  0.01508859  0.54130538    -0.26700
C548        C  0.14391599  0.99774185  0.55736149    -0.14700
C549        C  0.16580838  0.98052843  0.53601629     0.35900
C550        C  0.16135323  0.97932676  0.49973083    -0.26100
C551        C  0.13567144  0.99504152  0.48393034    -0.15400
C552        C  0.11455319  0.01330609  0.50530066     0.37000
N553        N  0.08663638  0.02902333  0.49187493    -0.89600
H554        H  0.10200931  0.02727729  0.55729077     0.18100
H555        H  0.17810784  0.96599644  0.48387151     0.18100
N556        N  0.19214903  0.96306247  0.55055618    -0.88600
H557        H  0.06665697  0.01914360  0.50470419     0.35500
H558        H  0.08307289  0.02386274  0.46573907     0.40600
H559        H  0.19382330  0.96706818  0.57727165     0.40200
H560        H  0.21321830  0.97271318  0.53976807     0.35100
C561        C  0.08251087  0.88688387  0.74032690    -0.26700
C562        C  0.07751136  0.92044603  0.73690422    -0.14700
C563        C  0.05355796  0.93443888  0.75821266     0.35900
C564        C  0.03673766  0.91503403  0.78323038    -0.26100
C565        C  0.04295335  0.88172510  0.78730761    -0.15400
C566        C  0.06567675  0.86762983  0.76478092     0.37000
N567        N  0.07225025  0.83361970  0.76750212    -0.89600
H568        H  0.10003709  0.87535618  0.72376783     0.18100
H569        H  0.01987964  0.92633999  0.80076765     0.18100
N570        N  0.04582332  0.96798317  0.75400704    -0.88600
H571        H  0.08970172  0.82684057  0.74944576     0.35500
H572        H  0.05130861  0.82098450  0.76100908     0.40600
H573        H  0.06553710  0.98164694  0.76229747     0.40200
H574        H  0.02669275  0.97411482  0.77023504     0.35100
C575        C  0.04267659  0.61419657  0.01862057    -0.26700
C576        C  0.01566922  0.62060111  0.03986074    -0.14700
C577        C  0.48343687  0.62722192  0.02475890     0.35900
C578        C  0.48132046  0.62848012  0.98831077    -0.26100
C579        C  0.50724131  0.61975783  0.96647586    -0.15400
C580        C  0.04091565  0.61463875  0.98193140     0.37000
N581        N  0.06783257  0.60517035  0.96108355    -0.89600
H582        H  0.06480522  0.60676019  0.03059104     0.18100
H583        H  0.45837462  0.63423447  0.97701497     0.18100
N584        N  0.45608069  0.63453718  0.04574600    -0.88600
H585        H  0.08725008  0.59940881  0.97684880     0.35500
H586        H  0.07492550  0.62528706  0.94629568     0.40600
H587        H  0.43748176  0.61874387  0.03877946     0.40200
H588        H  0.44902656  0.65810188  0.03985074     0.35100
C589        C  0.49641479  0.98024230  0.92077858    -0.26700
C590        C  0.50889986  0.49882119  0.90003655    -0.14700
C591        C  0.04004047  0.48742322  0.88531189     0.35900
C592        C  0.04758501  0.95384548  0.88096727    -0.26100
C593        C  0.03317050  0.93564288  0.90723160    -0.15400
C594        C  0.50632212  0.94844769  0.92801805     0.37000
N595        N  0.49103888  0.92993392  0.95521273    -0.89600
H596        H  0.47753394  0.99102520  0.93612276     0.18100
H597        H  0.06468571  0.94259340  0.86359619     0.18100
N598        N  0.05893127  0.50381589  0.85935429    -0.88600
H599        H  0.47398165  0.94386967  0.96812207     0.35500
H600        H  0.50856022  0.92432426  0.97347653     0.40600
H601        H  0.06997835  0.52416353  0.87028458     0.40200
H602        H  0.04431543  0.51038545  0.83862805     0.35100
C603        C  0.50078749  0.69640494  0.82772961    -0.26700
C604        C  0.47657348  0.68317099  0.84966906    -0.14700
C605        C  0.46176037  0.70394190  0.87380786     0.35900
C606        C  0.97748719  0.73704301  0.88211517    -0.26100
C607        C  0.00168922  0.74974276  0.86013277    -0.15400
C608        C  0.01322148  0.73035423  0.83297321     0.37000
N609        N  0.03713538  0.74211779  0.80917125    -0.89600
H610        H  0.51259039  0.68114342  0.80884601     0.18100
H611        H  0.96805714  0.75214357  0.90266710     0.18100
N612        N  0.43738940  0.69164266  0.89695324    -0.88600
H613        H  0.05760380  0.74828468  0.82328676     0.35500
H614        H  0.02859123  0.76304575  0.79725826     0.40600
H615        H  0.41753079  0.68541851  0.88187482     0.40200
H616        H  0.42980961  0.70971920  0.91397404     0.35100
C617        C  0.32835673  0.97202696  0.51728606    -0.26700
C618        C  0.34820241  0.99505478  0.53318493    -0.14700
C619        C  0.36325557  0.01910486  0.51208813     0.35900
C620        C  0.36035580  0.01809428  0.47568979    -0.26100
C621        C  0.34264018  0.99350182  0.45967324    -0.15400
C622        C  0.32510456  0.97139671  0.48087929     0.37000
N623        N  0.30492400  0.94732464  0.46521441    -0.89600
H624        H  0.31579246  0.95414808  0.53303563     0.18100
H625        H  0.37435197  0.03485503  0.45992048     0.18100
N626        N  0.38336809  0.04345811  0.52735700    -0.88600
H627        H  0.28169787  0.95026417  0.47485863     0.35500
H628        H  0.31285038  0.92453896  0.47298779     0.40600
H629        H  0.36927471  0.57266360  0.52264837     0.40200
H630        H  0.40637232  0.04129325  0.51685210     0.35100
C631        C  0.98287659  0.52539724  0.62579810    -0.26700
C632        C  0.46418276  0.00054969  0.60670189    -0.14700
C633        C  0.47817063  0.97243637  0.59235843     0.35900
C634        C  0.51023096  0.96507468  0.59930512    -0.26100
C635        C  0.02852762  0.98663518  0.62148809    -0.15400
C636        C  0.01514382  0.01670662  0.63256335     0.37000
N637        N  0.03481754  0.54576420  0.64579418    -0.89600
H638        H  0.47348310  0.54558280  0.63158317     0.18100
H639        H  0.51991337  0.94251435  0.58984877     0.18100
N640        N  0.45928953  0.95038256  0.57211097    -0.88600
H641        H  0.02096685  0.56605112  0.65130936     0.35500
H642        H  0.05077145  0.04991632  0.63396104     0.40600
H643        H  0.45955499  0.92773770  0.58428040     0.40200
H644        H  0.47022288  0.94809039  0.54775363     0.35100
C645        C  0.23196183  0.94701536  0.64438815    -0.26700
C646        C  0.21319166  0.96175584  0.67004243    -0.14700
C647        C  0.22833749  0.98483401  0.69213870     0.35900
C648        C  0.26101220  0.49998903  0.68802613    -0.26100
C649        C  0.27876400  0.98051716  0.65978414    -0.15400
C650        C  0.26430044  0.95602986  0.63922755     0.37000
N651        N  0.28222022  0.94095107  0.61198659    -0.89600
H652        H  0.22110432  0.92963645  0.62687314     0.18100
H653        H  0.27251333  0.51839018  0.70379173     0.18100
N654        N  0.21161685  0.50739853  0.72179323    -0.88600
H655        H  0.27042111  0.94498884  0.58851908     0.35500
H656        H  0.28222900  0.91601763  0.61665933     0.40600
H657        H  0.21118472  0.02403112  0.71701113     0.40200
H658        H  0.22375969  0.50330837  0.74504069     0.35100
C659        C  0.41306071  0.53611945  0.78653558    -0.26700
C660        C  0.44622357  0.54355341  0.78435493    -0.14700
C661        C  0.46309446  0.53170707  0.75507565     0.35900
C662        C  0.44616447  0.51519769  0.72822326    -0.26100
C663        C  0.41275027  0.50955097  0.73001436    -0.15400
C664        C  0.39639798  0.51949875  0.76026906     0.37000
N665        N  0.36250385  0.51431063  0.76475033    -0.89600
H666        H  0.39925246  0.54379443  0.80887719     0.18100
H667        H  0.45885384  0.50835365  0.70477468     0.18100
N668        N  0.49706972  0.53675535  0.75223833    -0.88600
H669        H  0.35920753  0.49991820  0.78688753     0.35500
H670        H  0.35276289  0.50110374  0.74419234     0.40600
H671        H  0.50119670  0.56159746  0.74918363     0.40200
H672        H  0.50594408  0.52569379  0.72981104     0.35100
O673        O  0.91234689  0.02738591  0.62059843    -0.74800
O674        O  0.82276362  0.01654520  0.65004633    -0.74800
O675        O  0.88125878  0.02828235  0.68205385    -0.74900
O676        O  0.85484075  0.02122257  0.58853403    -0.74900
O677        O  0.85772692  0.47042916  0.59192318    -0.74800
O678        O  0.89191121  0.97566585  0.68447442    -0.74800
O679        O  0.83099648  0.46681414  0.65661111    -0.74800
O680        O  0.91496933  0.47474084  0.62256984    -0.74900
Ni681      Ni  0.86731275  0.02527858  0.63538460     1.25400
Ni682      Ni  0.87343588  0.47010986  0.63977202     1.25400
C683        C  0.92855631  0.00129086  0.61557863     0.87400
C684        C  0.81255139  0.98727636  0.65555542     0.87300
C685        C  0.89413425  0.00451782  0.69744280     0.87400
C686        C  0.85351092  0.49730811  0.57544303     0.87500
O687        O  0.97195347  0.04278560  0.89129540    -0.74800
O688        O  0.95699167  0.13439745  0.86803262    -0.74800
O689        O  0.94572309  0.07456151  0.83632210    -0.74900
O690        O  0.97644832  0.10089907  0.92332765    -0.74900
O691        O  0.02579011  0.10860966  0.90279069    -0.74800
O692        O  0.99439593  0.07356758  0.81324616    -0.74800
O693        O  0.00446028  0.13452660  0.84196019    -0.74800
O694        O  0.02145817  0.05068372  0.87174343    -0.74900
Ni695      Ni  0.96083676  0.08804872  0.88021394     1.25400
Ni696      Ni  0.01316465  0.09217715  0.85639981     1.25400
C697        C  0.00059694  0.03230135  0.88533497     0.87400
C698        C  0.98034942  0.14995375  0.85288567     0.87300
C699        C  0.96402706  0.06680412  0.81122925     0.87400
C700        C  0.00527130  0.10943987  0.92820880     0.87500
O701        O  0.57495926  0.44965904  0.62520848    -0.74800
O702        O  0.66309982  0.43695617  0.65544583    -0.74800
O703        O  0.60252372  0.42299415  0.68240813    -0.74900
O704        O  0.63427486  0.45808371  0.59824449    -0.74900
O705        O  0.63545338  0.50781861  0.62047267    -0.74800
O706        O  0.60056515  0.47120304  0.70755316    -0.74800
O707        O  0.66119104  0.48521616  0.68079259    -0.74800
O708        O  0.57741103  0.49828976  0.64944977    -0.74900
Ni709      Ni  0.61872042  0.44001134  0.63987420     1.25400
Ni710      Ni  0.61888006  0.49225180  0.66568539     1.25400
C711        C  0.56228170  0.47742969  0.63172013     0.87400
C712        C  0.67719939  0.46090649  0.67087789     0.87300
C713        C  0.59417950  0.44046473  0.70811646     0.87400
C714        C  0.63958744  0.48820024  0.59467099     0.87500
O715        O  0.55186555  0.38305499  0.89822324    -0.74800
O716        O  0.53951553  0.29458315  0.86564921    -0.74800
O717        O  0.55327752  0.35400550  0.83549774    -0.74900
O718        O  0.54289148  0.32433529  0.92781990    -0.74900
O719        O  0.99113682  0.33230230  0.92888308    -0.74800
O720        O  0.50170393  0.36652848  0.83209638    -0.74800
O721        O  0.48771386  0.30531191  0.85971836    -0.74800
O722        O  0.49881218  0.38826758  0.89770492    -0.74900
Ni723      Ni  0.54878368  0.33853423  0.88169114     1.25400
Ni724      Ni  0.49263561  0.34742452  0.87821000     1.25400
C725        C  0.52645388  0.39981265  0.90371150     0.87400
C726        C  0.51056640  0.28523174  0.85920351     0.87300
C727        C  0.53051286  0.36778927  0.81960253     0.87400
C728        C  0.51552386  0.32278320  0.94236667     0.87500
O729        O  0.54986247  0.05508606  0.12209951    -0.74800
O730        O  0.53828531  0.14386169  0.15363042    -0.74800
O731        O  0.55284522  0.08515227  0.18426407    -0.74900
O732        O  0.54014153  0.11281312  0.09150948    -0.74900
O733        O  0.48751626  0.10503699  0.09625169    -0.74800
O734        O  0.50107941  0.07321262  0.19105053    -0.74800
O735        O  0.48646838  0.13270124  0.16076343    -0.74800
O736        O  0.49707182  0.04803680  0.12691661    -0.74900
Ni737      Ni  0.54714229  0.09976527  0.13789338     1.25400
Ni738      Ni  0.49114689  0.08972260  0.14422880     1.25400
C739        C  0.52442335  0.03735101  0.11888310     0.87400
C740        C  0.50957389  0.15309527  0.16098275     0.87300
C741        C  0.53023063  0.07242870  0.20215636     0.87400
C742        C  0.51255703  0.11207987  0.07770207     0.87500
O743        O  0.57662520  0.03220473  0.39725117    -0.74800
O744        O  0.66698726  0.02394555  0.37242274    -0.74800
O745        O  0.61087706  0.03778403  0.33839911    -0.74900
O746        O  0.63225648  0.02334016  0.43217450    -0.74900
O747        O  0.62890371  0.47024120  0.43069351    -0.74800
O748        O  0.59825187  0.98605893  0.33037903    -0.74800
O749        O  0.65722137  0.46311213  0.36690269    -0.74800
O750        O  0.57311440  0.47894289  0.39829653    -0.74900
Ni751      Ni  0.62219663  0.03118280  0.38523776     1.25400
Ni752      Ni  0.61455664  0.47026697  0.38238745     1.25400
C753        C  0.55970487  0.00587226  0.39915719     0.87400
C754        C  0.67674558  0.99544176  0.36410970     0.87300
C755        C  0.59708045  0.01601331  0.32031370     0.87400
C756        C  0.63556695  0.49692908  0.44662503     0.87500
O757        O  0.91810942  0.45421289  0.39341032    -0.74800
O758        O  0.82884108  0.43756948  0.36663041    -0.74800
O759        O  0.88889166  0.42731556  0.33723412    -0.74900
O760        O  0.85940128  0.45890814  0.42320760    -0.74900
O761        O  0.85476900  0.50886916  0.40213030    -0.74800
O762        O  0.89019082  0.47673207  0.31411216    -0.74800
O763        O  0.82944592  0.48609392  0.34174063    -0.74800
O764        O  0.91261532  0.50384131  0.37246820    -0.74900
Ni765      Ni  0.87387383  0.44256087  0.38064737     1.25400
Ni766      Ni  0.87145327  0.49550060  0.35656086     1.25400
C767        C  0.92957304  0.48297447  0.38743631     0.87400
C768        C  0.81399755  0.46092433  0.35137668     0.87300
C769        C  0.89664560  0.44623937  0.31237415     0.87400
C770        C  0.85231552  0.48840910  0.42751204     0.87500
O771        O  0.97285407  0.39223247  0.12830726    -0.74800
O772        O  0.95817528  0.30206153  0.15674338    -0.74800
O773        O  0.94796801  0.36258457  0.18551296    -0.74900
O774        O  0.97728728  0.33297007  0.09931048    -0.74900
O775        O  0.52575735  0.32894970  0.11422990    -0.74800
O776        O  0.99724805  0.36596134  0.20669617    -0.74800
O777        O  0.00609080  0.30385796  0.18129675    -0.74800
O778        O  0.02285948  0.38674511  0.14637493    -0.74900
Ni779      Ni  0.96214927  0.34749744  0.14202515     1.25400
Ni780      Ni  0.01496630  0.34571703  0.16433609     1.25400
C781        C  0.00146583  0.40384217  0.13262178     0.87400
C782        C  0.98163409  0.28763165  0.17185933     0.87300
C783        C  0.96695153  0.37183815  0.20930914     0.87400
C784        C  0.00616209  0.32518881  0.09415136     0.87500
C785        C  0.94644573  0.43851922  0.27563537    -0.30700
C786        C  0.91399200  0.43097549  0.28266178    -0.14700
C787        C  0.90066384  0.40310356  0.26730422     0.35900
C788        C  0.91932259  0.38339589  0.24579928    -0.26100
C789        C  0.95166190  0.39062696  0.23826549    -0.15400
C790        C  0.96530569  0.41889205  0.25319434     0.37000
N791        N  0.99786831  0.42785213  0.24526447    -0.89600
H792        H  0.95730176  0.45924555  0.28834605     0.18100
H793        H  0.90798869  0.36230927  0.23425947     0.18100
N794        N  0.86781418  0.39458000  0.27367887    -0.88600
H795        H  0.00431712  0.44900709  0.25848042     0.35500
H796        H  0.99915176  0.43336486  0.21876106     0.40600
H797        H  0.86700473  0.37139673  0.28460526     0.40200
H798        H  0.85608454  0.39363770  0.24977207     0.35100
C799        C  0.47874092  0.47933394  0.41744251    -0.26700
C800        C  0.96264065  0.49357666  0.39696247    -0.14700
C801        C  0.97698348  0.52255473  0.38296388     0.35900
C802        C  0.00818187  0.02698420  0.38334757    -0.26100
C803        C  0.52772398  0.51002226  0.40441640    -0.15400
C804        C  0.51075660  0.48732829  0.42531206     0.37000
N805        N  0.52682295  0.47130366  0.45330534    -0.89600
H806        H  0.46593730  0.46151124  0.43303020     0.18100
H807        H  0.52018881  0.03618130  0.35790227     0.18100
N808        N  0.96121802  0.03975555  0.35071068    -0.88600
H809        H  0.51124958  0.45513448  0.46599639     0.35500
H810        H  0.53320775  0.48896532  0.47148367     0.40600
H811        H  0.94133198  0.55422571  0.37242754     0.40200
H812        H  0.95322020  0.02554018  0.32998789     0.35100
C813        C  0.72824405  0.99776166  0.32996499    -0.26700
C814        C  0.71202658  0.47677508  0.35788264    -0.14700
C815        C  0.72567697  0.44928243  0.37411868     0.35900
C816        C  0.75855400  0.44251106  0.36936879    -0.26100
C817        C  0.77815681  0.46208928  0.34809402    -0.15400
C818        C  0.76340888  0.48747276  0.32917587     0.37000
N819        N  0.77659010  0.99811513  0.29339767    -0.89600
H820        H  0.71682101  0.01326372  0.31110906     0.18100
H821        H  0.76921126  0.42296444  0.38390799     0.18100
N822        N  0.70643354  0.42898830  0.39653897    -0.88600
H823        H  0.77723892  0.02341595  0.29336693     0.35500
H824        H  0.77000696  0.50395496  0.28018576     0.40600
H825        H  0.69983308  0.44279346  0.41809851     0.40200
H826        H  0.71978258  0.40965121  0.40597674     0.35100
C827        C  0.54908758  0.48006855  0.10566753    -0.26700
C828        C  0.52540555  0.00275208  0.11047914    -0.14700
C829        C  0.00161495  0.98912689  0.08856096     0.35900
C830        C  0.99340666  0.45557730  0.09972317    -0.26100
C831        C  0.01136612  0.43739420  0.12312516    -0.15400
C832        C  0.54175113  0.44702406  0.10847414     0.37000
N833        N  0.56704488  0.42516588  0.11657937    -0.89600
H834        H  0.57268483  0.48873449  0.11297295     0.18100
H835        H  0.97270406  0.44481043  0.08723608     0.18100
N836        N  0.97999709  0.00748330  0.06758470    -0.88600
H837        H  0.57747696  0.43252258  0.13994392     0.35500
H838        H  0.58441912  0.42703763  0.09699765     0.40600
H839        H  0.98938291  0.03050236  0.06211338     0.40200
H840        H  0.95876826  0.01033394  0.08169452     0.35100
C841        C  0.01227242  0.23896928  0.19032689    -0.26700
C842        C  0.98406347  0.25152206  0.17536584    -0.14700
C843        C  0.46187632  0.23185923  0.16338899     0.35900
C844        C  0.47012782  0.19874941  0.16113130    -0.26100
C845        C  0.50154418  0.18786718  0.16772064    -0.15400
C846        C  0.02105397  0.20646617  0.18630767     0.37000
N847        N  0.05058998  0.19535357  0.20043870    -0.89600
H848        H  0.02886241  0.25485399  0.20374701     0.18100
H849        H  0.45207737  0.18149625  0.15272791     0.18100
N850        N  0.43014256  0.24207342  0.15480059    -0.88600
H851        H  0.05026029  0.19964410  0.22719588     0.35500
H852        H  0.06919908  0.20919609  0.18952715     0.40600
H853        H  0.41987314  0.25157958  0.17735428     0.40200
H854        H  0.41590638  0.22224334  0.14762436     0.35100
C855        C  0.57194810  0.06192846  0.28820663    -0.26700
C856        C  0.57754641  0.02822852  0.28988028    -0.14700
C857        C  0.56264785  0.00854784  0.26447860     0.35900
C858        C  0.54421829  0.02311744  0.23760336    -0.26100
C859        C  0.53982478  0.05701173  0.23575485    -0.15400
C860        C  0.55352513  0.07631269  0.26213449     0.37000
N861        N  0.55020819  0.11095996  0.26277168    -0.89600
H862        H  0.58205567  0.07794162  0.30760651     0.18100
H863        H  0.53470601  0.00811602  0.21694551     0.18100
N864        N  0.63494685  0.51575687  0.25610271    -0.88600
H865        H  0.53883067  0.11695329  0.28611293     0.35500
H866        H  0.53519620  0.11910477  0.24310515     0.40600
H867        H  0.64581593  0.52999670  0.27519839     0.40200
H868        H  0.64482031  0.52329697  0.23237259     0.35100
C869        C  0.98822644  0.30332787  0.03756369    -0.26700
C870        C  0.01369375  0.31585747  0.05777533    -0.14700
C871        C  0.54110496  0.32511871  0.03664431     0.35900
C872        C  0.54184439  0.32545585  0.00008680    -0.26100
C873        C  0.51509628  0.31566047  0.98022674    -0.15400
C874        C  0.98864115  0.30500476  0.00106253     0.37000
N875        N  0.96142782  0.29432045  0.98129795    -0.89600
H876        H  0.96672815  0.29443006  0.05045738     0.18100
H877        H  0.56260042  0.33593095  0.98713608     0.18100
N878        N  0.56730602  0.33862236  0.05607193    -0.88600
H879        H  0.94329952  0.28558560  0.99776781     0.35500
H880        H  0.96866599  0.27478542  0.96604610     0.40600
H881        H  0.55952580  0.36022786  0.06720626     0.40200
H882        H  0.58629760  0.34489573  0.03948857     0.35100
C883        C  0.62572928  0.51954124  0.54255252    -0.26700
C884        C  0.64730991  0.49877402  0.55861520    -0.14700
C885        C  0.66759940  0.47972126  0.53720834     0.35900
C886        C  0.66332901  0.47943130  0.50091375    -0.26100
C887        C  0.63974822  0.49817414  0.48508283    -0.15400
C888        C  0.62103944  0.51902050  0.50638431     0.37000
N889        N  0.59550100  0.53840205  0.49290649    -0.89600
H890        H  0.60962530  0.53362450  0.55853489     0.18100
H891        H  0.67838821  0.46417242  0.48500323     0.18100
N892        N  0.69187101  0.45936864  0.55166808    -0.88600
H893        H  0.57432647  0.53092644  0.50529228     0.35500
H894        H  0.59159357  0.53435725  0.46659497     0.40600
H895        H  0.69397722  0.46313854  0.57837555     0.40200
H896        H  0.71383536  0.46674143  0.54096422     0.35100
C897        C  0.57500675  0.38911410  0.73678359    -0.26700
C898        C  0.57598981  0.42334381  0.73717333    -0.14700
C899        C  0.55732610  0.43917568  0.76277019     0.35900
C900        C  0.53970669  0.42059123  0.78777737    -0.26100
C901        C  0.53986603  0.38643272  0.78763194    -0.15400
C902        C  0.55730464  0.37079278  0.76129428     0.37000
N903        N  0.55773724  0.33600614  0.76023302    -0.89600
H904        H  0.58846973  0.37617393  0.71723728     0.18100
H905        H  0.52715434  0.43284775  0.80855508     0.18100
N906        N  0.55604450  0.47387668  0.76332073    -0.88600
H907        H  0.57178624  0.32796019  0.73948864     0.35500
H908        H  0.53436696  0.32794421  0.75544366     0.40600
H909        H  0.57862402  0.48250675  0.77064615     0.40200
H910        H  0.53993384  0.48160047  0.78235180     0.35100
C911        C  0.53872522  0.11061252  0.01894515    -0.26700
C912        C  0.51117444  0.11718925  0.03926591    -0.14700
C913        C  0.98738015  0.12982646  0.02178236     0.35900
C914        C  0.98701366  0.13073157  0.98520010    -0.26100
C915        C  0.01259802  0.11872217  0.96484124    -0.15400
C916        C  0.53792124  0.11029480  0.98223848     0.37000
N917        N  0.56548602  0.10071897  0.96248973    -0.89600
H918        H  0.56067338  0.10380884  0.03172759     0.18100
H919        H  0.96555851  0.13897070  0.97238414     0.18100
N920        N  0.96026281  0.14058581  0.04158817    -0.88600
H921        H  0.58444914  0.09522930  0.97900821     0.35500
H922        H  0.57293461  0.12069144  0.94768244     0.40600
H923        H  0.94221875  0.14866949  0.02510898     0.40200
H924        H  0.96767968  0.16059072  0.05619652     0.35100
C925        C  0.99613815  0.48306356  0.92698837    -0.26700
C926        C  0.01172742  0.99899681  0.89316329    -0.14700
C927        C  0.53643528  0.98381268  0.87465730     0.35900
C928        C  0.54594462  0.45405696  0.89099904    -0.26100
C929        C  0.52731578  0.43434227  0.91242523    -0.15400
C930        C  0.00532528  0.45114945  0.93459060     0.37000
N931        N  0.98780283  0.43223081  0.95982975    -0.89600
H932        H  0.97587557  0.49348896  0.94040738     0.18100
H933        H  0.56539373  0.44371325  0.87607172     0.18100
N934        N  0.55260229  0.99971914  0.84630542    -0.88600
H935        H  0.96985093  0.44604557  0.97137458     0.35500
H936        H  0.00373464  0.42615322  0.97958109     0.40600
H937        H  0.56583278  0.01944101  0.85561216     0.40200
H938        H  0.53578560  0.00723617  0.82807192     0.35100
C939        C  0.00991251  0.19952795  0.83195689    -0.26700
C940        C  0.98325279  0.18632139  0.85038097    -0.14700
C941        C  0.96481632  0.20762236  0.87071410     0.35900
C942        C  0.47489797  0.23833716  0.87304991    -0.26100
C943        C  0.50157058  0.25060604  0.85434174    -0.15400
C944        C  0.51767522  0.22990260  0.83142932     0.37000
N945        N  0.54447286  0.24092197  0.81107353    -0.89600
H946        H  0.02450749  0.18409468  0.81576392     0.18100
H947        H  0.46223297  0.25425551  0.89059765     0.18100
N948        N  0.93750448  0.19564766  0.88980415    -0.88600
H949        H  0.56257207  0.24856074  0.82789891     0.35500
H950        H  0.53732728  0.26073252  0.79619037     0.40600
H951        H  0.92038549  0.18823951  0.87169275     0.40200
H952        H  0.92713481  0.21420349  0.90428540     0.35100
C953        C  0.82846725  0.47573862  0.52080730    -0.26700
C954        C  0.84830260  0.49847638  0.53720302    -0.14700
C955        C  0.86398501  0.52243989  0.51655907     0.35900
C956        C  0.86155261  0.52169817  0.48011692    -0.26100
C957        C  0.84379987  0.49737744  0.46364085    -0.15400
C958        C  0.82581563  0.47528066  0.48435113     0.37000
N959        N  0.80584156  0.45135087  0.46813951    -0.89600
H960        H  0.81554199  0.45785989  0.53621205     0.18100
H961        H  0.87596398  0.53838667  0.46469463     0.18100
N962        N  0.88432415  0.54631329  0.53233735    -0.88600
H963        H  0.78247437  0.45428942  0.47736133     0.35500
H964        H  0.81359191  0.42850504  0.47592907     0.40600
H965        H  0.87920984  0.06523238  0.52457885     0.40200
H966        H  0.90742125  0.54377495  0.52218887     0.35100
C967        C  0.48379637  0.02296014  0.62350335    -0.26700
C968        C  0.96339797  0.50119704  0.61182389    -0.14700
C969        C  0.97770300  0.47241138  0.59948004     0.35900
C970        C  0.01009240  0.46650534  0.60588757    -0.26100
C971        C  0.52962587  0.48656926  0.61998629    -0.15400
C972        C  0.51657958  0.51757409  0.62785756     0.37000
N973        N  0.53531306  0.04008235  0.64759769    -0.89600
H974        H  0.97195699  0.04442935  0.63776838     0.18100
H975        H  0.02008691  0.44349849  0.59823610     0.18100
N976        N  0.95898932  0.44832962  0.58181817    -0.88600
H977        H  0.52160749  0.05998773  0.65489367     0.35500
H978        H  0.55261844  0.55013462  0.62329063     0.40600
H979        H  0.96022232  0.42672007  0.59591548     0.40200
H980        H  0.96936946  0.44447626  0.55741890     0.35100
C981        C  0.73136314  0.45006194  0.64667146    -0.26700
C982        C  0.71282551  0.46385088  0.67307722    -0.14700
C983        C  0.72778956  0.48651389  0.69571923     0.35900
C984        C  0.75983719  0.99141783  0.68785627    -0.26100
C985        C  0.77786120  0.48330156  0.66281228    -0.15400
C986        C  0.76336132  0.45970912  0.64123309     0.37000
N987        N  0.78087886  0.44629152  0.61267961    -0.89600
H988        H  0.72047107  0.43317748  0.62863835     0.18100
H989        H  0.77074724  0.00883778  0.70528766     0.18100
N990        N  0.71022280  0.99474956  0.72202395    -0.88600
H991        H  0.76853862  0.45140810  0.58979421     0.35500
H992        H  0.78126852  0.42116289  0.61581142     0.40600
H993        H  0.71037243  0.52518713  0.72129434     0.40200
H994        H  0.72245243  0.98915983  0.74484587     0.35100
C995        C  0.91492316  0.04093940  0.78499654    -0.26700
C996        C  0.94800596  0.04848313  0.78156056    -0.14700
C997        C  0.96383520  0.03687791  0.75151878     0.35900
C998        C  0.94625047  0.01930056  0.72589253    -0.26100
C999        C  0.91304950  0.01274741  0.72933323    -0.15400
C1000       C  0.89752838  0.02364821  0.75974811     0.37000
N1001       N  0.86376963  0.01861377  0.76552499    -0.89600
H1002       H  0.90176138  0.04887138  0.80768811     0.18100
H1003       H  0.95821068  0.01221166  0.70209227     0.18100
N1004       N  0.99738749  0.04337748  0.74661271    -0.88600
H1005       H  0.86109118  0.00483019  0.78818728     0.35500
H1006       H  0.85339178  0.00490773  0.74572198     0.40600
H1007       H  0.00028302  0.06836770  0.74335509     0.40200
H1008       H  0.00553502  0.03267044  0.72367269     0.35100
O1009       O  0.91302058  0.52852841  0.62375936    -0.74800
O1010       O  0.82342421  0.51998129  0.65280126    -0.74800
O1011       O  0.88188883  0.52912746  0.68515910    -0.74900
O1012       O  0.85562617  0.52425330  0.59126272    -0.74900
O1013       O  0.85851465  0.96750981  0.58956432    -0.74800
O1014       O  0.89074359  0.47608709  0.68680055    -0.74800
O1015       O  0.83186504  0.96371998  0.65448598    -0.74800
O1016       O  0.91572258  0.97365520  0.61995119    -0.74900
Ni1017     Ni  0.86806999  0.52743508  0.63834043     1.25400
Ni1018     Ni  0.87435367  0.96820241  0.63750750     1.25400
C1019       C  0.92854879  0.50207625  0.61858693     0.87400
C1020       C  0.81248376  0.49098266  0.65805185     0.87300
C1021       C  0.89359500  0.50458676  0.70032761     0.87400
C1022       C  0.85358380  0.99418061  0.57289178     0.87500
O1023       O  0.97150613  0.54339888  0.89669624    -0.74800
O1024       O  0.95347450  0.63298632  0.86989755    -0.74800
O1025       O  0.94385761  0.57195990  0.84058245    -0.74900
O1026       O  0.97499817  0.60260427  0.92589017    -0.74900
O1027       O  0.02385008  0.61070935  0.90413372    -0.74800
O1028       O  0.99224671  0.57226868  0.81666225    -0.74800
O1029       O  0.00067290  0.63401244  0.84305107    -0.74800
O1030       O  0.02039190  0.55164738  0.87558338    -0.74900
Ni1031     Ni  0.95901671  0.58755578  0.88371981     1.25400
Ni1032     Ni  0.01090569  0.59245949  0.85876911     1.25400
C1033       C  0.00033947  0.53349803  0.89094226     0.87400
C1034       C  0.97626896  0.64881699  0.85423517     0.87300
C1035       C  0.96210920  0.56456705  0.81527443     0.87400
C1036       C  0.00374521  0.61192803  0.92987471     0.87500
O1037       O  0.57343494  0.94718610  0.62453433    -0.74800
O1038       O  0.66213146  0.93242219  0.65323555    -0.74800
O1039       O  0.60134191  0.91943978  0.68115985    -0.74900
O1040       O  0.63257562  0.95391972  0.59677263    -0.74900
O1041       O  0.63545192  0.00357942  0.61904837    -0.74800
O1042       O  0.60015486  0.96765829  0.70639704    -0.74800
O1043       O  0.66110246  0.98039649  0.67916698    -0.74800
O1044       O  0.57750336  0.99576178  0.64860167    -0.74900
Ni1045     Ni  0.61731337  0.93630158  0.63850356     1.25400
Ni1046     Ni  0.61884344  0.98844651  0.66444402     1.25400
C1047       C  0.56157759  0.97537295  0.63112237     0.87400
C1048       C  0.67679898  0.95608364  0.66868048     0.87300
C1049       C  0.59334479  0.93698919  0.70691369     0.87400
C1050       C  0.63865235  0.98384132  0.59316839     0.87500
O1051       O  0.55325371  0.88130999  0.89502503    -0.74800
O1052       O  0.53750935  0.79177965  0.86686270    -0.74800
O1053       O  0.55212201  0.84961178  0.83397826    -0.74900
O1054       O  0.54375784  0.82394803  0.92780050    -0.74900
O1055       O  0.99420228  0.83232700  0.92893201    -0.74800
O1056       O  0.50104119  0.86399876  0.83161287    -0.74800
O1057       O  0.48593131  0.80386201  0.86191657    -0.74800
O1058       O  0.50034812  0.88771113  0.89642122    -0.74900
Ni1059     Ni  0.54852623  0.83610993  0.88082577     1.25400
Ni1060     Ni  0.49261126  0.84643991  0.87872902     1.25400
C1061       C  0.52840602  0.89892524  0.90053455     0.87400
C1062       C  0.50818784  0.78311772  0.86116612     0.87300
C1063       C  0.52957872  0.86391638  0.81827323     0.87400
C1064       C  0.51677659  0.82347219  0.94321159     0.87500
O1065       O  0.55357645  0.55136623  0.11528393    -0.74800
O1066       O  0.54670615  0.63868752  0.15310036    -0.74800
O1067       O  0.56193741  0.57808468  0.17923493    -0.74900
O1068       O  0.54369491  0.61095162  0.08999902    -0.74900
O1069       O  0.49138001  0.60384400  0.09839230    -0.74800
O1070       O  0.51080073  0.56739127  0.19059206    -0.74800
O1071       O  0.49538162  0.62828446  0.16426622    -0.74800
O1072       O  0.50135631  0.54536305  0.12555480    -0.74900
Ni1073     Ni  0.55336548  0.59519544  0.13448150     1.25400
Ni1074     Ni  0.49789565  0.58620029  0.14541731     1.25400
C1075       C  0.52727570  0.53478931  0.11293417     0.87400
C1076       C  0.51867473  0.64832292  0.16266923     0.87300
C1077       C  0.54072960  0.56482152  0.19871213     0.87400
C1078       C  0.51535169  0.61137691  0.07832136     0.87500
O1079       O  0.58108161  0.53234490  0.39532404    -0.74800
O1080       O  0.66960400  0.51561764  0.36885153    -0.74800
O1081       O  0.61301842  0.52867934  0.33490250    -0.74900
O1082       O  0.63705454  0.52362739  0.42998331    -0.74900
O1083       O  0.62772015  0.96990057  0.42594733    -0.74800
O1084       O  0.59904851  0.47651264  0.33452400    -0.74800
O1085       O  0.65707152  0.97177887  0.36199552    -0.74800
O1086       O  0.57200449  0.97849170  0.39360620    -0.74900
Ni1087     Ni  0.62584383  0.52693648  0.38222829     1.25400
Ni1088     Ni  0.61395261  0.97458134  0.37740924     1.25400
C1089       C  0.56261140  0.50755349  0.40058424     0.87400
C1090       C  0.67795468  0.48588697  0.36445287     0.87300
C1091       C  0.59939303  0.50475869  0.31993764     0.87400
C1092       C  0.63217671  0.99510126  0.44532047     0.87500
O1093       O  0.91551785  0.95375933  0.38800626    -0.74800
O1094       O  0.82546260  0.94045903  0.36339491    -0.74800
O1095       O  0.88448550  0.92924302  0.33192485    -0.74900
O1096       O  0.85758606  0.95932803  0.41952562    -0.74900
O1097       O  0.85301248  0.00978571  0.39978565    -0.74800
O1098       O  0.88732710  0.97929603  0.31056697    -0.74800
O1099       O  0.82671663  0.98926332  0.33887289    -0.74800
O1100       O  0.91061393  0.00431576  0.36947573    -0.74900
Ni1101     Ni  0.87076960  0.94373933  0.37615678     1.25400
Ni1102     Ni  0.86912194  0.99734771  0.35365077     1.25400
C1103       C  0.92750286  0.98240917  0.38278940     0.87400
C1104       C  0.81093966  0.96445522  0.34901651     0.87300
C1105       C  0.89302566  0.94869760  0.30783342     0.87400
C1106       C  0.85076390  0.98877131  0.42467476     0.87500
O1107       O  0.97578572  0.89302467  0.12404438    -0.74800
O1108       O  0.96299855  0.80363990  0.15680160    -0.74800
O1109       O  0.94958282  0.86519622  0.18235830    -0.74900
O1110       O  0.98227973  0.83306240  0.09881100    -0.74900
O1111       O  0.53071896  0.82725317  0.11602011    -0.74800
O1112       O  0.99790079  0.87032051  0.20560622    -0.74800
O1113       O  0.01031856  0.80825011  0.18237737    -0.74800
O1114       O  0.02473435  0.89040554  0.14573703    -0.74900
Ni1115     Ni  0.96567818  0.84872670  0.14015690     1.25400
Ni1116     Ni  0.01780213  0.84982043  0.16445179     1.25400
C1117       C  0.00407870  0.90547492  0.12853913     0.87400
C1118       C  0.98711015  0.79065275  0.17230500     0.87300
C1119       C  0.96737316  0.87546625  0.20675780     0.87400
C1120       C  0.01162887  0.82704724  0.09436139     0.87500
C1121       C  0.94370047  0.94175940  0.27255161    -0.30700
C1122       C  0.91107360  0.93402425  0.27821632    -0.14700
C1123       C  0.89840586  0.90630299  0.26189736     0.35900
C1124       C  0.91785035  0.88708119  0.24060986    -0.26100
C1125       C  0.95049582  0.89438747  0.23469712    -0.15400
C1126       C  0.96346823  0.92241883  0.25075774     0.37000
N1127       N  0.99638110  0.93133805  0.24480569    -0.89600
H1128       H  0.95405508  0.96228740  0.28608679     0.18100
H1129       H  0.90700984  0.86611910  0.22830114     0.18100
N1130       N  0.86552433  0.89729891  0.26726498    -0.88600
H1131       H  0.00229528  0.95223232  0.25876093     0.35500
H1132       H  0.99893987  0.93727352  0.21850617     0.40600
H1133       H  0.86475776  0.87396759  0.27782639     0.40200
H1134       H  0.85434369  0.89652787  0.24304373     0.35100
C1135       C  0.47757734  0.97196794  0.41641081    -0.26700
C1136       C  0.96110608  0.99173396  0.39134269    -0.14700
C1137       C  0.97635171  0.01953535  0.37591923     0.35900
C1138       C  0.00883838  0.53026872  0.39003503    -0.26100
C1139       C  0.52471426  0.00540945  0.40257704    -0.15400
C1140       C  0.50928030  0.98181124  0.42374659     0.37000
N1141       N  0.52656008  0.96691879  0.45159228    -0.89600
H1142       H  0.46577483  0.95389915  0.43257802     0.18100
H1143       H  0.52476834  0.54306136  0.36143887     0.18100
N1144       N  0.96088365  0.54396654  0.35969658    -0.88600
H1145       H  0.51208062  0.94989998  0.46452195     0.35500
H1146       H  0.53208078  0.98499083  0.46963164     0.40600
H1147       H  0.94222766  0.05196138  0.36235252     0.40200
H1148       H  0.95359812  0.53118587  0.33764799     0.35100
C1149       C  0.73103271  0.49502754  0.33495820    -0.26700
C1150       C  0.71121212  0.98771549  0.35958717    -0.14700
C1151       C  0.72587263  0.96603292  0.38298635     0.35900
C1152       C  0.75757565  0.95587967  0.37709207    -0.26100
C1153       C  0.77527962  0.96699701  0.34829286    -0.15400
C1154       C  0.75993986  0.98751702  0.32407671     0.37000
N1155       N  0.78133586  0.50614319  0.30423113    -0.89600
H1156       H  0.72066719  0.51524775  0.32121991     0.18100
H1157       H  0.76911781  0.94079714  0.39624538     0.18100
N1158       N  0.70855727  0.95488761  0.41318410    -0.88600
H1159       H  0.78061858  0.53045213  0.31165495     0.35500
H1160       H  0.76338833  0.99053029  0.27184154     0.40600
H1161       H  0.70441189  0.97502268  0.42891085     0.40200
H1162       H  0.72245288  0.93901535  0.42775876     0.35100
C1163       C  0.54516689  0.98405374  0.13106121    -0.26700
C1164       C  0.52512172  0.50197089  0.09801435    -0.14700
C1165       C  0.00113643  0.48816117  0.09331282     0.35900
C1166       C  0.99402251  0.95664330  0.09551669    -0.26100
C1167       C  0.01457487  0.93777699  0.11537971    -0.15400
C1168       C  0.53784990  0.95157196  0.13736114     0.37000
N1169       N  0.55741096  0.93451854  0.16163551    -0.89600
H1170       H  0.56437322  0.99546881  0.14559833     0.18100
H1171       H  0.97151664  0.94659736  0.08645304     0.18100
N1172       N  0.98159466  0.50572675  0.06946454    -0.88600
H1173       H  0.55681525  0.94678924  0.18533159     0.35500
H1174       H  0.58099632  0.93502833  0.15240339     0.40600
H1175       H  0.99651392  0.51650049  0.05074646     0.40200
H1176       H  0.96923941  0.52381925  0.08257624     0.35100
C1177       C  0.02424840  0.74423544  0.17829540    -0.26700
C1178       C  0.99226969  0.75487540  0.17499185    -0.14700
C1179       C  0.47027083  0.72624029  0.17056087     0.35900
C1180       C  0.47881250  0.69319182  0.16940681    -0.26100
C1181       C  0.51122266  0.68321178  0.16924280    -0.15400
C1182       C  0.03261153  0.71158517  0.17498921     0.37000
N1183       N  0.06555076  0.70262927  0.17702358    -0.89600
H1184       H  0.04359921  0.76157498  0.18178276     0.18100
H1185       H  0.45987872  0.67520457  0.16727632     0.18100
N1186       N  0.43727509  0.73553165  0.16945169    -0.88600
H1187       H  0.07432495  0.71011672  0.20112324     0.35500
H1188       H  0.07822010  0.71524916  0.15768864     0.40600
H1189       H  0.43189827  0.74682979  0.19301967     0.40200
H1190       H  0.42238230  0.71508448  0.16789975     0.35100
C1191       C  0.54962500  0.51752407  0.28583284    -0.26700
C1192       C  0.58294452  0.51196936  0.28626905    -0.14700
C1193       C  0.60110582  0.52173808  0.25711574     0.35900
C1194       C  0.58619948  0.53768627  0.22917902    -0.26100
C1195       C  0.55320933  0.54531254  0.22928220    -0.15400
C1196       C  0.53465561  0.53384057  0.25787059     0.37000
N1197       N  0.50094114  0.53923713  0.25993798    -0.89600
H1198       H  0.53531108  0.51055656  0.30821002     0.18100
H1199       H  0.60105229  0.54489955  0.20729685     0.18100
N1200       N  0.56683600  0.97413118  0.26541731    -0.88600
H1201       H  0.49006033  0.52810441  0.23862512     0.35500
H1202       H  0.49701427  0.56414507  0.25862215     0.40600
H1203       H  0.59104510  0.96963495  0.26071814     0.40200
H1204       H  0.55412316  0.96308266  0.24531096     0.35100
C1205       C  0.99503760  0.80329531  0.03823493    -0.26700
C1206       C  0.01986706  0.81768843  0.05803879    -0.14700
C1207       C  0.54409967  0.82760832  0.03714188     0.35900
C1208       C  0.54393711  0.82825221  0.00051673    -0.26100
C1209       C  0.51716599  0.81735240  0.98131086    -0.15400
C1210       C  0.99446087  0.80527821  0.00175379     0.37000
N1211       N  0.96757534  0.79280516  0.98264537    -0.89600
H1212       H  0.97448636  0.79273702  0.05153156     0.18100
H1213       H  0.56402667  0.83942029  0.98698834     0.18100
N1214       N  0.57040654  0.84158217  0.05601780    -0.88600
H1215       H  0.95037143  0.78290257  0.99952674     0.35500
H1216       H  0.97576098  0.77380287  0.96719825     0.40600
H1217       H  0.56218627  0.86250443  0.06822807     0.40200
H1218       H  0.58860635  0.84903662  0.03894384     0.35100
C1219       C  0.62415780  0.01530994  0.54172749    -0.26700
C1220       C  0.64571979  0.99405368  0.55693356    -0.14700
C1221       C  0.66438282  0.97396978  0.53482354     0.35900
C1222       C  0.65893857  0.97376933  0.49872046    -0.26100
C1223       C  0.63560365  0.99340550  0.48380910    -0.15400
C1224       C  0.61790348  0.01447855  0.50591609     0.37000
N1225       N  0.59192482  0.03394280  0.49354581    -0.89600
H1226       H  0.60905454  0.02992840  0.55830438     0.18100
H1227       H  0.67313145  0.95819468  0.48226545     0.18100
N1228       N  0.68823707  0.95261609  0.54841375    -0.88600
H1229       H  0.57159596  0.02787054  0.50825670     0.35500
H1230       H  0.58562640  0.02801900  0.46819633     0.40600
H1231       H  0.69147983  0.95642826  0.57497899     0.40200
H1232       H  0.71009271  0.95892490  0.53673107     0.35100
C1233       C  0.57848401  0.88593818  0.73847436    -0.26700
C1234       C  0.57534010  0.91984323  0.73604916    -0.14700
C1235       C  0.55248124  0.93466280  0.75810838     0.35900
C1236       C  0.53493206  0.91559232  0.78284635    -0.26100
C1237       C  0.53928642  0.88184781  0.78578073    -0.15400
C1238       C  0.56084295  0.86705380  0.76251597     0.37000
N1239       N  0.56554443  0.83264755  0.76422419    -0.89600
H1240       H  0.59518991  0.87377621  0.72145712     0.18100
H1241       H  0.51905548  0.92739206  0.80107526     0.18100
N1242       N  0.54667987  0.96873211  0.75506295    -0.88600
H1243       H  0.58237377  0.82531621  0.74573152     0.35500
H1244       H  0.54387131  0.82137198  0.75772294     0.40600
H1245       H  0.56724119  0.98096785  0.76346720     0.40200
H1246       H  0.52813362  0.97553681  0.77176370     0.35100
C1247       C  0.53917650  0.61298450  0.01845383    -0.26700
C1248       C  0.51223040  0.61807947  0.04025903    -0.14700
C1249       C  0.98756464  0.63104202  0.02377448     0.35900
C1250       C  0.98607519  0.63242012  0.98735447    -0.26100
C1251       C  0.01171777  0.62216485  0.96603248    -0.15400
C1252       C  0.53696340  0.61360376  0.98187799     0.37000
N1253       N  0.56414950  0.60574017  0.96062601    -0.89600
H1254       H  0.56185678  0.60653910  0.02987224     0.18100
H1255       H  0.96358577  0.63919964  0.97564407     0.18100
N1256       N  0.96012022  0.63939430  0.04416024    -0.88600
H1257       H  0.58397672  0.60069115  0.97607717     0.35500
H1258       H  0.57017561  0.62637590  0.94613222     0.40600
H1259       H  0.94109652  0.62429782  0.03678620     0.40200
H1260       H  0.95404128  0.66321656  0.03812943     0.35100
C1261       C  0.99927262  0.98169282  0.92160639    -0.26700
C1262       C  0.01211041  0.50098550  0.90112494    -0.14700
C1263       C  0.53706335  0.48573740  0.88415093     0.35900
C1264       C  0.54598305  0.95238766  0.88199064    -0.26100
C1265       C  0.53005281  0.93388470  0.90697338    -0.15400
C1266       C  0.00996432  0.95016975  0.92898017     0.37000
N1267       N  0.99592215  0.93180643  0.95705533    -0.89600
H1268       H  0.98092336  0.99249545  0.93768008     0.18100
H1269       H  0.56368088  0.94121718  0.86528613     0.18100
N1270       N  0.55621423  0.50280098  0.85891163    -0.88600
H1271       H  0.97908233  0.94564299  0.97041994     0.35500
H1272       H  0.01414752  0.92673018  0.97467777     0.40600
H1273       H  0.56727681  0.52277597  0.87057753     0.40200
H1274       H  0.54182234  0.50995119  0.83821677     0.35100
C1275       C  0.00120146  0.69872756  0.82892589    -0.26700
C1276       C  0.97853034  0.68497106  0.85233118    -0.14700
C1277       C  0.96616333  0.70481711  0.87892344     0.35900
C1278       C  0.47242829  0.73645690  0.87647307    -0.26100
C1279       C  0.49819723  0.74867937  0.85629230    -0.15400
C1280       C  0.51204410  0.72837450  0.83126387     0.37000
N1281       N  0.53752825  0.73951069  0.80908699    -0.89600
H1282       H  0.01125694  0.68404845  0.80837208     0.18100
H1283       H  0.46128085  0.75214517  0.89542626     0.18100
N1284       N  0.94381646  0.69174022  0.90391995    -0.88600
H1285       H  0.55689434  0.74635799  0.82459297     0.35500
H1286       H  0.52973108  0.75988468  0.79554590     0.40600
H1287       H  0.92258197  0.68641885  0.89077821     0.40200
H1288       H  0.93819260  0.70906213  0.92268305     0.35100
C1289       C  0.82767861  0.97411699  0.51786233    -0.26700
C1290       C  0.84874055  0.99547148  0.53460819    -0.14700
C1291       C  0.86514716  0.01930921  0.51445961     0.35900
C1292       C  0.86206774  0.01987306  0.47811158    -0.26100
C1293       C  0.84294582  0.99698209  0.46116257    -0.15400
C1294       C  0.82438411  0.97499973  0.48143249     0.37000
N1295       N  0.80298170  0.95268329  0.46474325    -0.89600
H1296       H  0.81408060  0.95650738  0.53294329     0.18100
H1297       H  0.87693902  0.03640139  0.46300082     0.18100
N1298       N  0.88667124  0.04184051  0.53065355    -0.88600
H1299       H  0.77995270  0.95649193  0.47456535     0.35500
H1300       H  0.80969245  0.92920544  0.47145923     0.40600
H1301       H  0.87605381  0.56916817  0.52526480     0.40200
H1302       H  0.90947347  0.03869119  0.51994661     0.35100
C1303       C  0.48390562  0.52322459  0.62250861    -0.26700
C1304       C  0.96344531  0.00104541  0.60880890    -0.14700
C1305       C  0.97776520  0.97343896  0.59372422     0.35900
C1306       C  0.00991841  0.96627116  0.60053609    -0.26100
C1307       C  0.52911328  0.98573325  0.61960313    -0.15400
C1308       C  0.51616591  0.01628263  0.62973143     0.37000
N1309       N  0.53608246  0.54301589  0.64240074    -0.89600
H1310       H  0.97218618  0.54765902  0.63477500     0.18100
H1311       H  0.01991044  0.94411004  0.59039441     0.18100
N1312       N  0.95916056  0.95172835  0.57276822    -0.88600
H1313       H  0.52245089  0.56343399  0.64800375     0.35500
H1314       H  0.55238789  0.04887250  0.62987968     0.40600
H1315       H  0.95964979  0.92877881  0.58424072     0.40200
H1316       H  0.97017680  0.95019097  0.54837888     0.35100
C1317       C  0.73141281  0.94506777  0.64438570    -0.26700
C1318       C  0.71265044  0.95886965  0.67066605    -0.14700
C1319       C  0.72767012  0.98150659  0.69335034     0.35900
C1320       C  0.76000935  0.49613488  0.69030029    -0.26100
C1321       C  0.77793238  0.97867458  0.66050203    -0.15400
C1322       C  0.76360065  0.95467592  0.63919988     0.37000
N1323       N  0.78146127  0.94078452  0.61118120    -0.89600
H1324       H  0.72061033  0.92810114  0.62637951     0.18100
H1325       H  0.77111499  0.51336888  0.70780143     0.18100
N1326       N  0.71026316  0.50002178  0.72419123    -0.88600
H1327       H  0.76936831  0.94544848  0.58802836     0.35500
H1328       H  0.78183976  0.91571741  0.61485861     0.40600
H1329       H  0.71018028  0.01992969  0.71930926     0.40200
H1330       H  0.72234832  0.49451562  0.74712830     0.35100
C1331       C  0.91330251  0.53867795  0.78874303    -0.26700
C1332       C  0.94644472  0.54597036  0.78575866    -0.14700
C1333       C  0.96272387  0.53406870  0.75612734     0.35900
C1334       C  0.94533585  0.51711127  0.73000345    -0.26100
C1335       C  0.91200735  0.51135308  0.73271562    -0.15400
C1336       C  0.89615586  0.52176984  0.76308046     0.37000
N1337       N  0.86233229  0.51668851  0.76830292    -0.89600
H1338       H  0.89992215  0.54662148  0.81128034     0.18100
H1339       H  0.95755733  0.51003764  0.70634172     0.18100
N1340       N  0.99654264  0.53958701  0.75215524    -0.88600
H1341       H  0.85938473  0.50263631  0.79074256     0.35500
H1342       H  0.85224378  0.50318398  0.74816608     0.40600
H1343       H  0.00021352  0.56446236  0.74876647     0.40200
H1344       H  0.00496522  0.52850421  0.72953472     0.35100
loop_ 
_geom_bond_atom_site_label_1 
_geom_bond_atom_site_label_2 
_geom_bond_distance 
_geom_bond_site_symmetry_2 
_ccdc_geom_bond_type 
O1           Ni9   1.963       .  S
O1           C11   1.294       .  A
O2           Ni9   1.972       .  S
O2           C12   1.295   1_545  A
O3           Ni9   1.896       .  S
O3           C13   1.273       .  A
O4           Ni9   1.891       .  S
O4          C350   1.272   1_545  A
O5          Ni10   1.965       .  S
O5           C14   1.294       .  A
O6         Ni346   1.973       .  S
O6           C13   1.294   1_565  A
O7          Ni10   1.889       .  S
O7          C348   1.272       .  A
O8          Ni10   1.863       .  S
O8          C347   1.267       .  A
Ni9        Ni346   2.382   1_545  S
Ni10        O342   1.973       .  S
Ni10       Ni345   2.381       .  S
C11         O344   1.267   1_545  A
C11         C632   1.480       .  S
C12         O343   1.272       .  A
C12         C649   1.497       .  S
C13         C327   1.497       .  S
C14         O340   1.273       .  A
C14         C282   1.498       .  S
O15         Ni23   1.976       .  S
O15          C25   1.297       .  A
O16         Ni23   1.973       .  S
O16          C26   1.296       .  A
O17         Ni23   1.883       .  S
O17          C27   1.271       .  A
O18         Ni23   1.860       .  S
O18          C28   1.266       .  A
O19         Ni24   1.984       .  S
O19          C28   1.298       .  A
O20         Ni24   1.992       .  S
O20          C27   1.299       .  A
O21         Ni24   1.871       .  S
O21          C26   1.268       .  A
O22         Ni24   1.848       .  S
O22          C25   1.260       .  A
Ni23        Ni24   2.371       .  S
C25         C254   1.487   1_545  S
C26         C268   1.501       .  S
C27         C324   1.520       .  S
C28         C243   1.497       .  S
O29         Ni37   1.960       .  S
O29          C39   1.294       .  A
O30         Ni37   1.957       .  S
O30          C40   1.293       .  A
O31         Ni37   1.897       .  S
O31          C41   1.275       .  A
O32         Ni37   1.876       .  S
O32          C42   1.268       .  A
O33         Ni38   1.976       .  S
O33          C42   1.296       .  A
O34         Ni38   1.981       .  S
O34          C41   1.296       .  A
O35         Ni38   1.893       .  S
O35          C40   1.272       .  A
O36         Ni38   1.865       .  S
O36          C39   1.266       .  A
Ni37        Ni38   2.378       .  S
C39         C299   1.491       .  S
C40         C310   1.498       .  S
C41         C226   1.519       .  S
C42         C212   1.488       .  S
O43         Ni51   1.951       .  S
O43          C53   1.291       .  A
O44         Ni51   1.958       .  S
O44          C54   1.292       .  A
O45         Ni51   1.896       .  S
O45          C55   1.274       .  A
O46         Ni51   1.885       .  S
O46          C56   1.272       .  A
O47        Ni724   1.955       .  S
O47         C728   1.292       .  A
O48         Ni52   1.977   1_455  S
O48          C55   1.295       .  A
O49         Ni52   1.900       .  S
O49          C54   1.274   1_655  A
O50         Ni52   1.868   1_455  S
O50          C53   1.268       .  A
Ni51        Ni52   2.382   1_455  S
Ni52        O719   1.953       .  S
C53         C257   1.467       .  S
C54         C271   1.497       .  S
C55         C229   1.503       .  S
C56         O719   1.292   1_455  A
C56         C201   1.487       .  S
O57         Ni65   1.949       .  S
O57          C67   1.290       .  A
O58         Ni65   1.958       .  S
O58          C68   1.293       .  A
O59         Ni65   1.903       .  S
O59          C69   1.274       .  A
O60         Ni65   1.891       .  S
O60          C70   1.273       .  A
O61         Ni66   1.959       .  S
O61          C70   1.293   1_655  A
O62         Ni66   1.972   1_455  S
O62          C69   1.294       .  A
O63         Ni66   1.892       .  S
O63          C68   1.272   1_655  A
O64         Ni66   1.862   1_455  S
O64          C67   1.268       .  A
Ni65        Ni66   2.385   1_455  S
C67         C156   1.469       .  S
C68         C173   1.492       .  S
C69         C187   1.499       .  S
C70         C240   1.493       .  S
O71         Ni79   1.956       .  S
O71          C81   1.292       .  A
O72         Ni79   1.963       .  S
O72          C82   1.292   1_545  A
O73         Ni79   1.895       .  S
O73          C83   1.275       .  A
O74         Ni79   1.892       .  S
O74         C420   1.272   1_545  A
O75         Ni80   1.967       .  S
O75          C84   1.294       .  A
O76        Ni416   1.983       .  S
O76          C83   1.297   1_565  A
O77         Ni80   1.895       .  S
O77         C418   1.273       .  A
O78         Ni80   1.864       .  S
O78         C417   1.267       .  A
Ni79       Ni416   2.382   1_545  S
Ni80        O412   1.981       .  S
Ni80       Ni415   2.383       .  S
C81         O414   1.267   1_545  A
C81         C467   1.471       .  S
C82         O413   1.272       .  A
C82         C478   1.489       .  S
C83         C184   1.516       .  S
C84         O410   1.273       .  A
C84         C215   1.495       .  S
O85         Ni93   1.965       .  S
O85          C95   1.294       .  A
O86         Ni93   1.964       .  S
O86          C96   1.294       .  A
O87         Ni93   1.897       .  S
O87          C97   1.273       .  A
O88         Ni93   1.878       .  S
O88          C98   1.270       .  A
O89         Ni94   1.972       .  S
O89          C98   1.295       .  A
O90         Ni94   1.977       .  S
O90          C97   1.295       .  A
O91         Ni94   1.889       .  S
O91          C96   1.272       .  A
O92         Ni94   1.864       .  S
O92          C95   1.265       .  A
Ni93        Ni94   2.378       .  S
C95         C128   1.485       .  S
C96         C145   1.501       .  S
C97         C114   1.502       .  S
C98         C285   1.489       .  S
O99        Ni107   1.970       .  S
O99         C109   1.296       .  A
O100       Ni107   1.969       .  S
O100        C110   1.295       .  A
O101       Ni107   1.895       .  S
O101        C111   1.274       .  A
O102       Ni107   1.860       .  S
O102        C112   1.267       .  A
O103       Ni780   1.970       .  S
O103        C784   1.295       .  A
O104       Ni108   1.979       .  S
O104        C111   1.295       .  A
O105       Ni108   1.883       .  S
O105        C110   1.271       .  A
O106       Ni108   1.856       .  S
O106        C109   1.264       .  A
Ni107      Ni108   2.376       .  S
Ni108       O775   1.972       .  S
C109        C159   1.489       .  S
C110        C170   1.508       .  S
C111        C117   1.510       .  S
C112        O775   1.296       .  A
C112        C198   1.486       .  S
C113        C114   1.413       .  A
C113        C118   1.429       .  A
C113        H120   1.083       .  S
C114        C115   1.408       .  A
C115        C116   1.405       .  A
C115        N122   1.433       .  S
C116        C117   1.409       .  A
C116        H121   1.084       .  S
C117        C118   1.419       .  A
C118        N119   1.437       .  S
N119        H123   1.046       .  S
N119        H124   1.046       .  S
N122        H125   1.046       .  S
N122        H126   1.046       .  S
C127        C132   1.408   1_655  A
C127        C800   1.401       .  A
C127        H134   1.083       .  S
C128        C129   1.429       .  A
C128        C799   1.401       .  A
C129        C466   1.394       .  A
C129        N472   1.434       .  S
C130        C465   1.392       .  A
C130       C1139   1.391       .  A
C130        H807   1.085       .  S
C131        C417   1.471       .  S
C131        C132   1.417       .  A
C131       C1138   1.389       .  A
C132        N133   1.438       .  S
N133        H137   1.046       .  S
N133        H138   1.046       .  S
H135        C802   1.085       .  S
N136        C465   1.435       .  S
N136        H140   1.045       .  S
N136        H475   1.044       .  S
H139        N472   1.044       .  S
C141        C478   1.401       .  A
C141        C482   1.413       .  A
C141        H148   1.084   1_565  S
C142        C418   1.494       .  S
C142        C143   1.421       .  A
C142        C477   1.399       .  A
C143        C144   1.413       .  A
C143        N150   1.438       .  S
C144        C145   1.403       .  A
C144        H149   1.083       .  S
C145        C146   1.423       .  A
C146        C477   1.411       .  A
C146        N483   1.433       .  S
N147        C482   1.432       .  S
N147        H151   1.046   1_565  S
N147        H488   1.046       .  S
N150        H153   1.046       .  S
N150        H154   1.046       .  S
H152        N483   1.046       .  S
C155        C160   1.396       .  A
C155        C492   1.390       .  A
C155        H162   1.084       .  S
C156        C491   1.388   1_545  A
C156        C829   1.422   1_545  A
C157        C828   1.422   1_565  A
C157        C494   1.404       .  A
C157        N164   1.434   1_565  S
C158        C159   1.397       .  A
C158        C493   1.401       .  A
C158        H163   1.083       .  S
C159        C832   1.428       .  A
C160        C831   1.427       .  A
C160        N161   1.434       .  S
N161        H165   1.046       .  S
N161        H166   1.046       .  S
N164        H167   1.046       .  S
N164        H168   1.043       .  S
C169        C170   1.419       .  A
C169        C174   1.407       .  A
C169        H176   1.083       .  S
C170        C843   1.411       .  A
C171        C172   1.415       .  A
C171        C842   1.412       .  A
C171        N178   1.437       .  S
C172        C173   1.414   1_655  A
C172        H177   1.084       .  S
C173        C846   1.400       .  A
C174        C845   1.403       .  A
C174        N175   1.432       .  S
N175        H179   1.046       .  S
N175        H180   1.046       .  S
N178        H181   1.045       .  S
N178        H182   1.046       .  S
C183        C184   1.416       .  A
C183        C188   1.407       .  A
C183        H190   1.084       .  S
C184        C185   1.413       .  A
C185        C186   1.426       .  A
C185        N528   1.436   1_545  S
C186        C187   1.415       .  A
C186        H191   1.084       .  S
C187        C188   1.413       .  A
C188        N189   1.439       .  S
N189        H193   1.046       .  S
N189        H194   1.044       .  S
N192        C521   1.436       .  S
N192        H195   1.046       .  S
N192        H196   1.045       .  S
C197        C198   1.417       .  A
C197        C202   1.407   1_554  A
C197        H204   1.084       .  S
C198        C871   1.405       .  A
C199        C200   1.408       .  A
C199        C870   1.405       .  A
C199        N206   1.438       .  S
C200        C201   1.414   1_554  A
C200        H205   1.083   1_554  S
C201        C874   1.404   1_456  A
C202        C873   1.403       .  A
C202        N203   1.438       .  S
N203        H207   1.046       .  S
N203        H208   1.046       .  S
N206        H209   1.046       .  S
N206        H210   1.046       .  S
C211        C212   1.398       .  A
C211        C216   1.407       .  A
C211        H218   1.085       .  S
C212        C213   1.425       .  A
C213        C214   1.412       .  A
C213        N220   1.439       .  S
C214        C215   1.402       .  A
C214        H219   1.084       .  S
C215        C216   1.428       .  A
C216        N217   1.440       .  S
N217        H221   1.046       .  S
N217        H222   1.039       .  S
N220        H223   1.044       .  S
N220        H224   1.046       .  S
C225        C226   1.413       .  A
C225        C230   1.408       .  A
C225        H232   1.083       .  S
C226        C227   1.419       .  A
C227        C228   1.429       .  A
C227        N234   1.436       .  S
C228        C229   1.414       .  A
C228        H233   1.084       .  S
C229        C230   1.409       .  A
C230        N231   1.439       .  S
N231        H235   1.045       .  S
N231        H236   1.046       .  S
N234        H237   1.045       .  S
N234        H238   1.045       .  S
C239        C240   1.416       .  A
C239        C244   1.413   1_554  A
C239        H246   1.083       .  S
C240        C913   1.404   1_455  A
C241        C242   1.408   1_554  A
C241        C912   1.404       .  A
C241        N248   1.438       .  S
C242        C243   1.418       .  A
C242        H247   1.084       .  S
C243        C916   1.405       .  A
C244        C915   1.405       .  A
C244        N245   1.436       .  S
N245        H249   1.046       .  S
N245        H250   1.045       .  S
N248        H251   1.046       .  S
N248        H252   1.046       .  S
C253        C258   1.409       .  A
C253        C590   1.401       .  A
C253        H260   1.083       .  S
C254        C589   1.400       .  A
C254        C927   1.433       .  A
C255        C926   1.433       .  A
C255        C592   1.392       .  A
C255        N262   1.434   1_565  S
C256        C257   1.389       .  A
C256        C591   1.391       .  A
C256        H261   1.085       .  S
C257        C930   1.416       .  A
C258        C929   1.417       .  A
C258        N259   1.438       .  S
N259        H263   1.046       .  S
N259        H264   1.046       .  S
N262        H265   1.044       .  S
N262        H266   1.045       .  S
C267        C268   1.419       .  A
C267        C944   1.403       .  A
C267        H274   1.084       .  S
C268        C269   1.410       .  A
C269        C942   1.413       .  A
C269        N276   1.437       .  S
C270        C271   1.414   1_655  A
C270        C941   1.417       .  A
C270        H275   1.084       .  S
C271        C272   1.407       .  A
C272        C939   1.405       .  A
C272        N273   1.432       .  S
N273        H277   1.045       .  S
N273        H278   1.046       .  S
N276        H279   1.045       .  S
N276        H280   1.046       .  S
C281        C282   1.401       .  A
C281        C286   1.411       .  A
C281        H288   1.084       .  S
C282        C283   1.423       .  A
C283        C284   1.409       .  A
C283        N290   1.433       .  S
C284        C285   1.397       .  A
C284        H289   1.084       .  S
C285        C286   1.418       .  A
C286        N287   1.433       .  S
N287        H291   1.046       .  S
N287        H292   1.045       .  S
N290        H294   1.046       .  S
N290        H629   1.046       .  S
H293        N626   1.046       .  S
C295       C1304   1.391       .  A
C295        C636   1.405   1_655  A
C295        H974   1.084       .  S
C296        C347   1.481       .  S
C296        C297   1.420       .  A
C296       C1303   1.393       .  A
C297        C298   1.403       .  A
C297        N304   1.433       .  S
C298        C971   1.398       .  A
C298        H303   1.084       .  S
C299        C300   1.430       .  A
C299        C970   1.397       .  A
C300        C631   1.404   1_455  A
C300        N637   1.439       .  S
N301        C636   1.439       .  S
N301        H305   1.046       .  S
N301        H642   1.046       .  S
H302        C967   1.084       .  S
N304        H307   1.046       .  S
N304        H308   1.046       .  S
H306        N637   1.046       .  S
C309        C310   1.400       .  A
C309        C314   1.405       .  A
C309        H316   1.084       .  S
C310        C311   1.423       .  A
C311        C648   1.415       .  A
C311        N654   1.433       .  S
C312        C647   1.416       .  A
C312        C649   1.400       .  A
C312        H317   1.084   1_565  S
C313        C348   1.492       .  S
C313        C314   1.417       .  A
C313        C648   1.401       .  A
C314        N315   1.433       .  S
N315        H319   1.046       .  S
N315        H320   1.046       .  S
N318        C647   1.432       .  S
N318        H322   1.046       .  S
N318        H657   1.046   1_565  S
H321        N654   1.046       .  S
C323        C324   1.419       .  A
C323        C328   1.405       .  A
C323        H330   1.083       .  S
C324        C325   1.414       .  A
C325        C326   1.426       .  A
C325        N332   1.436       .  S
C326        C327   1.416       .  A
C326        H331   1.083       .  S
C327        C328   1.410       .  A
C328        N329   1.439       .  S
N329        H333   1.046   1_545  S
N329        H334   1.044       .  S
N332        H335   1.046       .  S
N332        H336   1.045       .  S
O337       Ni345   1.960       .  S
O337        C347   1.294       .  A
O338       Ni345   1.968       .  S
O338        C348   1.293       .  A
O339       Ni345   1.898       .  S
O339        C349   1.273       .  A
O340       Ni345   1.896       .  S
O341       Ni346   1.961       .  S
O341        C350   1.293       .  A
O342        C349   1.294       .  A
O343       Ni346   1.894       .  S
O344       Ni346   1.864       .  S
C349        C663   1.497       .  S
C350        C618   1.491       .  S
O351       Ni359   1.973       .  S
O351        C361   1.296       .  A
O352       Ni359   1.972       .  S
O352        C362   1.296       .  A
O353       Ni359   1.893       .  S
O353        C363   1.274       .  A
O354       Ni359   1.867       .  S
O354        C364   1.268       .  A
O355       Ni360   1.978       .  S
O355        C364   1.297       .  A
O356       Ni360   1.986       .  S
O356        C363   1.297       .  A
O357       Ni360   1.873       .  S
O357        C362   1.268       .  A
O358       Ni360   1.849       .  S
O358        C361   1.260       .  A
Ni359      Ni360   2.371       .  S
C361        C590   1.489       .  S
C362        C604   1.501       .  S
C363        C660   1.522       .  S
C364        C579   1.495       .  S
O365       Ni373   1.971       .  S
O365        C375   1.296       .  A
O366       Ni373   1.968       .  S
O366        C376   1.295       .  A
O367       Ni373   1.901       .  S
O367        C377   1.275       .  A
O368       Ni373   1.872       .  S
O368        C378   1.267       .  A
O369       Ni374   1.974   1_545  S
O369        C378   1.296   1_545  A
O370       Ni374   1.979       .  S
O370        C377   1.296       .  A
O371       Ni374   1.893       .  S
O371        C376   1.272       .  A
O372       Ni374   1.863       .  S
O372        C375   1.265       .  A
Ni373      Ni374   2.378       .  S
C375        C635   1.497       .  S
C376        C646   1.505       .  S
C377        C562   1.517       .  S
C378        C548   1.483       .  S
O379       Ni387   1.955       .  S
O379        C389   1.292       .  A
O380       Ni387   1.961       .  S
O380        C390   1.292       .  A
O381       Ni387   1.894       .  S
O381        C391   1.274       .  A
O382       Ni387   1.888       .  S
O382        C392   1.272       .  A
O383      Ni1060   1.958       .  S
O383       C1064   1.293       .  A
O384       Ni388   1.981   1_455  S
O384        C391   1.296       .  A
O385       Ni388   1.892       .  S
O385        C390   1.272   1_655  A
O386       Ni388   1.861   1_455  S
O386        C389   1.266       .  A
Ni387      Ni388   2.382   1_455  S
Ni388      O1055   1.959       .  S
C389        C593   1.466       .  S
C390        C607   1.487       .  S
C391        C565   1.507       .  S
C392       O1055   1.294   1_455  A
C392        C537   1.490       .  S
O393       Ni401   1.951       .  S
O393        C403   1.291       .  A
O394       Ni401   1.962       .  S
O394        C404   1.294       .  A
O395       Ni401   1.905       .  S
O395        C405   1.275       .  A
O396       Ni401   1.893       .  S
O396        C406   1.273       .  A
O397       Ni402   1.961       .  S
O397        C406   1.294   1_655  A
O398       Ni402   1.973   1_455  S
O398        C405   1.295       .  A
O399       Ni402   1.889       .  S
O399        C404   1.272   1_655  A
O400       Ni402   1.865   1_455  S
O400        C403   1.267       .  A
Ni401      Ni402   2.382   1_455  S
C403        C492   1.469       .  S
C404        C509   1.500       .  S
C405        C523   1.503       .  S
C406        C576   1.497       .  S
O407       Ni415   1.955       .  S
O407        C417   1.292       .  A
O408       Ni415   1.965       .  S
O408        C418   1.293       .  A
O409       Ni415   1.898       .  S
O409        C419   1.274       .  A
O410       Ni415   1.898       .  S
O411       Ni416   1.968       .  S
O411        C420   1.294       .  A
O412        C419   1.296       .  A
O413       Ni416   1.897       .  S
O414       Ni416   1.866       .  S
C419        C520   1.509       .  S
C420        C551   1.491       .  S
O421       Ni429   1.970       .  S
O421        C431   1.295       .  A
O422       Ni429   1.966       .  S
O422        C432   1.295       .  A
O423       Ni429   1.892       .  S
O423        C433   1.273       .  A
O424       Ni429   1.870       .  S
O424        C434   1.268       .  A
O425       Ni430   1.972   1_545  S
O425        C434   1.295   1_545  A
O426       Ni430   1.977       .  S
O426        C433   1.295       .  A
O427       Ni430   1.888       .  S
O427        C432   1.271       .  A
O428       Ni430   1.857       .  S
O428        C431   1.263       .  A
Ni429      Ni430   2.376       .  S
C431        C464   1.486       .  S
C432        C481   1.496       .  S
C433        C450   1.505       .  S
C434        C621   1.484       .  S
O435       Ni443   1.976       .  S
O435        C445   1.297       .  A
O436       Ni443   1.974       .  S
O436        C446   1.296       .  A
O437       Ni443   1.886       .  S
O437        C447   1.271       .  A
O438       Ni443   1.863       .  S
O438        C448   1.267       .  A
O439      Ni1116   1.983       .  S
O439       C1120   1.298       .  A
O440       Ni444   1.981       .  S
O440        C447   1.296       .  A
O441       Ni444   1.871       .  S
O441        C446   1.268       .  A
O442       Ni444   1.845       .  S
O442        C445   1.261       .  A
Ni443      Ni444   2.373       .  S
Ni444      O1111   1.974       .  S
C445        C495   1.487       .  S
C446        C506   1.499       .  S
C447        C453   1.501       .  S
C448       O1111   1.296       .  A
C448        C534   1.488       .  S
C449        C450   1.412       .  A
C449        C454   1.427       .  A
C449        H456   1.082       .  S
C450        C451   1.414       .  A
C451        C452   1.405       .  A
C451        N458   1.433       .  S
C452        C453   1.406       .  A
C452        H457   1.084       .  S
C453        C454   1.418       .  A
C454        N455   1.437       .  S
N455        H459   1.046       .  S
N455        H460   1.046       .  S
N458        H461   1.046       .  S
N458        H462   1.046       .  S
C463       C1136   1.401       .  A
C463        C468   1.409   1_655  A
C463        H470   1.083       .  S
C464       C1135   1.401       .  A
C464        C465   1.430   1_565  A
C466        C803   1.393       .  A
C466       H1143   1.085       .  S
C467        C802   1.390       .  A
C467        C468   1.418   1_545  A
C468        N469   1.438       .  S
N469        H473   1.046       .  S
N469        H474   1.045       .  S
H471       C1138   1.085       .  S
N472        H476   1.046       .  S
C477        H484   1.084       .  S
C478        C479   1.416       .  A
C479        C480   1.412       .  A
C479        N486   1.437       .  S
C480        C481   1.403       .  A
C480        H485   1.083       .  S
C481        C482   1.420       .  A
N483        H487   1.046       .  S
N486        H489   1.046       .  S
N486        H490   1.046       .  S
C491        C496   1.396       .  A
C491        H498   1.084       .  S
C492       C1165   1.423       .  A
C493       C1164   1.425       .  A
C493        N500   1.437       .  S
C494        C495   1.399       .  A
C494        H499   1.083       .  S
C495       C1168   1.429       .  A
C496       C1167   1.432       .  A
C496        N497   1.434       .  S
N497        H501   1.046       .  S
N497        H502   1.046       .  S
N500        H503   1.045       .  S
N500        H504   1.045       .  S
C505        C506   1.417       .  A
C505        C510   1.403       .  A
C505        H512   1.083       .  S
C506       C1179   1.406       .  A
C507       C1178   1.406       .  A
C507        C508   1.416       .  A
C507        N514   1.437       .  S
C508        C509   1.420   1_655  A
C508        H513   1.083       .  S
C509       C1182   1.403       .  A
C510       C1181   1.403       .  A
C510        N511   1.432       .  S
N511        H515   1.046       .  S
N511        H516   1.046       .  S
N514        H517   1.046       .  S
N514        H518   1.046       .  S
C519        C520   1.415       .  A
C519        C524   1.412       .  A
C519        H526   1.084       .  S
C520        C521   1.409       .  A
C521        C522   1.422       .  A
C522        C523   1.416       .  A
C522        H527   1.083       .  S
C523        C524   1.414       .  A
C524        N525   1.438       .  S
N525        H529   1.046       .  S
N525        H530   1.043       .  S
N528        H531   1.046       .  S
N528        H532   1.046       .  S
C533        C534   1.416       .  A
C533        C538   1.408   1_554  A
C533        H540   1.084       .  S
C534       C1207   1.406       .  A
C535       C1206   1.406       .  A
C535        C536   1.413       .  A
C535        N542   1.437       .  S
C536        C537   1.415   1_554  A
C536        H541   1.083   1_554  S
C537       C1210   1.403   1_456  A
C538       C1209   1.403       .  A
C538        N539   1.437       .  S
N539        H543   1.046       .  S
N539        H544   1.046       .  S
N542        H545   1.046       .  S
N542        H546   1.046       .  S
C547        C548   1.397   1_545  A
C547        C552   1.405       .  A
C547        H554   1.085       .  S
C548        C549   1.424       .  A
C549        C550   1.411       .  A
C549        N556   1.439       .  S
C550        C551   1.402       .  A
C550        H555   1.083       .  S
C551        C552   1.427   1_565  A
C552        N553   1.440       .  S
N553        H557   1.046       .  S
N553        H558   1.040       .  S
N556        H559   1.045       .  S
N556        H560   1.046       .  S
C561        C562   1.411       .  A
C561        C566   1.411       .  A
C561        H568   1.083       .  S
C562        C563   1.420       .  A
C563        C564   1.428       .  A
C563        N570   1.436       .  S
C564        C565   1.412       .  A
C564        H569   1.083       .  S
C565        C566   1.414       .  A
C566        N567   1.439       .  S
N567        H571   1.046       .  S
N567        H572   1.046       .  S
N570        H573   1.045       .  S
N570        H574   1.046       .  S
C575        C576   1.418       .  A
C575        C580   1.415   1_554  A
C575        H582   1.083       .  S
C576       C1249   1.403   1_455  A
C577       C1248   1.402       .  A
C577        C578   1.407   1_554  A
C577        N584   1.432       .  S
C578        C579   1.418       .  A
C578        H583   1.084       .  S
C579       C1252   1.405       .  A
C580       C1251   1.406       .  A
C580        N581   1.437       .  S
N581        H585   1.045       .  S
N581        H586   1.046       .  S
N584        H587   1.046       .  S
N584        H588   1.046       .  S
C589        C594   1.410       .  A
C589        H596   1.083       .  S
C590       C1263   1.435       .  A
C591       C1262   1.434       .  A
C591        N598   1.434       .  S
C592        C593   1.389       .  A
C592        H597   1.085       .  S
C593       C1266   1.417       .  A
C594       C1265   1.417       .  A
C594        N595   1.437       .  S
N595        H599   1.046       .  S
N595        H600   1.046       .  S
N598        H601   1.045       .  S
N598        H602   1.045       .  S
C603        C604   1.418       .  A
C603       C1280   1.404       .  A
C603        H610   1.084       .  S
C604        C605   1.412       .  A
C605       C1278   1.415       .  A
C605        N612   1.437       .  S
C606       C1277   1.414       .  A
C606        C607   1.411   1_655  A
C606        H611   1.084       .  S
C607        C608   1.405       .  A
C608       C1275   1.404       .  A
C608        N609   1.432       .  S
N609        H613   1.045       .  S
N609        H614   1.046       .  S
N612        H615   1.045       .  S
N612        H616   1.045       .  S
C617        C618   1.399       .  A
C617        C622   1.409       .  A
C617        H624   1.084       .  S
C618        C619   1.421   1_565  A
C619        C620   1.408       .  A
C619        N626   1.433       .  S
C620        C621   1.397   1_545  A
C620        H625   1.084       .  S
C621        C622   1.418       .  A
C622        N623   1.433       .  S
N623        H627   1.046       .  S
N623        H628   1.046       .  S
N626        H630   1.046       .  S
C631        C968   1.393       .  A
C631       H1310   1.084       .  S
C632        C967   1.392       .  A
C632        C633   1.418   1_545  A
C633        C634   1.404       .  A
C633        N640   1.433       .  S
C634       C1307   1.399       .  A
C634        H639   1.083       .  S
C635       C1306   1.399       .  A
C635        C636   1.433   1_565  A
N637        H641   1.046       .  S
H638       C1303   1.084       .  S
N640        H643   1.046       .  S
N640        H644   1.046       .  S
C645        C646   1.402       .  A
C645        C650   1.410       .  A
C645        H652   1.084       .  S
C646        C647   1.424       .  A
C648        H653   1.084       .  S
C649        C650   1.418       .  A
C650        N651   1.433       .  S
N651        H655   1.046       .  S
N651        H656   1.046       .  S
N654        H658   1.046       .  S
C659        C660   1.418       .  A
C659        C664   1.407       .  A
C659        H666   1.083       .  S
C660        C661   1.417       .  A
C661        C662   1.426       .  A
C661        N668   1.436       .  S
C662        C663   1.414       .  A
C662        H667   1.084       .  S
C663        C664   1.411       .  A
C664        N665   1.439       .  S
N665        H669   1.046       .  S
N665        H670   1.044       .  S
N668        H671   1.045       .  S
N668        H672   1.046       .  S
O673       Ni681   1.964       .  S
O673        C683   1.294       .  A
O674       Ni681   1.971       .  S
O674        C684   1.294   1_545  A
O675       Ni681   1.896       .  S
O675        C685   1.272       .  A
O676       Ni681   1.887       .  S
O676       C1022   1.271   1_545  A
O677       Ni682   1.959       .  S
O677        C686   1.292       .  A
O678      Ni1018   1.978       .  S
O678        C685   1.296   1_565  A
O679       Ni682   1.888       .  S
O679       C1020   1.272       .  A
O680       Ni682   1.862       .  S
O680       C1019   1.267       .  A
Ni681     Ni1018   2.382   1_545  S
Ni682      O1014   1.968       .  S
Ni682     Ni1017   2.383       .  S
C683       O1016   1.266   1_545  A
C683       C1304   1.480       .  S
C684       O1015   1.272       .  A
C684       C1321   1.497       .  S
C685        C999   1.501       .  S
C686       O1012   1.273       .  A
C686        C954   1.490       .  S
O687       Ni695   1.979       .  S
O687        C697   1.297   1_655  A
O688       Ni695   1.979       .  S
O688        C698   1.297       .  A
O689       Ni695   1.890       .  S
O689        C699   1.273       .  A
O690       Ni695   1.863       .  S
O690        C700   1.266   1_655  A
O691       Ni696   1.984       .  S
O691        C700   1.298       .  A
O692       Ni696   1.993   1_655  S
O692        C699   1.299       .  A
O693       Ni696   1.875       .  S
O693        C698   1.269   1_455  A
O694       Ni696   1.850       .  S
O694        C697   1.260       .  A
Ni695      Ni696   2.370   1_655  S
C697        C926   1.489   1_545  S
C698        C940   1.509       .  S
C699        C996   1.525       .  S
C700        C915   1.495       .  S
O701       Ni709   1.962       .  S
O701        C711   1.294       .  A
O702       Ni709   1.958       .  S
O702        C712   1.293       .  A
O703       Ni709   1.898       .  S
O703        C713   1.275       .  A
O704       Ni709   1.876       .  S
O704        C714   1.269       .  A
O705       Ni710   1.973       .  S
O705        C714   1.295       .  A
O706       Ni710   1.976       .  S
O706        C713   1.295       .  A
O707       Ni710   1.890       .  S
O707        C712   1.272       .  A
O708       Ni710   1.865       .  S
O708        C711   1.266       .  A
Ni709      Ni710   2.378       .  S
C711        C971   1.492       .  S
C712        C982   1.495       .  S
C713        C898   1.518       .  S
C714        C884   1.487       .  S
O715       Ni723   1.951       .  S
O715        C725   1.291       .  A
O716       Ni723   1.955       .  S
O716        C726   1.291       .  A
O717       Ni723   1.896       .  S
O717        C727   1.274       .  A
O718       Ni723   1.883       .  S
O718        C728   1.271       .  A
O720       Ni724   1.974       .  S
O720        C727   1.294       .  A
O721       Ni724   1.891       .  S
O721        C726   1.273       .  A
O722       Ni724   1.864       .  S
O722        C725   1.267       .  A
Ni723      Ni724   2.384       .  S
C725        C929   1.467       .  S
C726        C943   1.488       .  S
C727        C901   1.498       .  S
C728        C873   1.486       .  S
O729       Ni737   1.949       .  S
O729        C739   1.291       .  A
O730       Ni737   1.960       .  S
O730        C740   1.293       .  A
O731       Ni737   1.900       .  S
O731        C741   1.274       .  A
O732       Ni737   1.889       .  S
O732        C742   1.272       .  A
O733       Ni738   1.958       .  S
O733        C742   1.293       .  A
O734       Ni738   1.974       .  S
O734        C741   1.294       .  A
O735       Ni738   1.900       .  S
O735        C740   1.274       .  A
O736       Ni738   1.867       .  S
O736        C739   1.267       .  A
Ni737      Ni738   2.383       .  S
C739        C828   1.468       .  S
C740        C845   1.502       .  S
C741        C859   1.499       .  S
C742        C912   1.496       .  S
O743       Ni751   1.958       .  S
O743        C753   1.292       .  A
O744       Ni751   1.959       .  S
O744        C754   1.291   1_545  A
O745       Ni751   1.887       .  S
O745        C755   1.273       .  A
O746       Ni751   1.886       .  S
O746       C1092   1.271   1_545  A
O747       Ni752   1.957       .  S
O747        C756   1.291       .  A
O748      Ni1088   1.987       .  S
O748        C755   1.298   1_565  A
O749       Ni752   1.903       .  S
O749       C1090   1.275       .  A
O750       Ni752   1.872       .  S
O750       C1089   1.269       .  A
Ni751     Ni1088   2.380   1_545  S
Ni752      O1084   1.974       .  S
Ni752     Ni1087   2.383       .  S
C753       O1086   1.266   1_545  A
C753       C1139   1.467       .  S
C754       O1085   1.273       .  A
C754       C1150   1.488       .  S
C755        C856   1.520       .  S
C756       O1082   1.275       .  A
C756        C887   1.492       .  S
O757       Ni765   1.970       .  S
O757        C767   1.296       .  A
O758       Ni765   1.969       .  S
O758        C768   1.295       .  A
O759       Ni765   1.893       .  S
O759        C769   1.273       .  A
O760       Ni765   1.873       .  S
O760        C770   1.269       .  A
O761       Ni766   1.966       .  S
O761        C770   1.294       .  A
O762       Ni766   1.972       .  S
O762        C769   1.293       .  A
O763       Ni766   1.885       .  S
O763        C768   1.271       .  A
O764       Ni766   1.858       .  S
O764        C767   1.263       .  A
Ni765      Ni766   2.378       .  S
C767        C800   1.493       .  S
C768        C817   1.505       .  S
C769        C786   1.495       .  S
C770        C957   1.482       .  S
O771       Ni779   1.967       .  S
O771        C781   1.295   1_655  A
O772       Ni779   1.965       .  S
O772        C782   1.294       .  A
O773       Ni779   1.882       .  S
O773        C783   1.272       .  A
O774       Ni779   1.861       .  S
O774        C784   1.267   1_655  A
O776       Ni780   1.978   1_655  S
O776        C783   1.295       .  A
O777       Ni780   1.880       .  S
O777        C782   1.271   1_455  A
O778       Ni780   1.855       .  S
O778        C781   1.264       .  A
Ni779      Ni780   2.375   1_655  S
C781        C831   1.487       .  S
C782        C842   1.503       .  S
C783        C789   1.503       .  S
C784        C870   1.486       .  S
C785        C786   1.413       .  A
C785        C790   1.427       .  A
C785        H792   1.083       .  S
C786        C787   1.406       .  A
C787        C788   1.402       .  A
C787        N794   1.433       .  S
C788        C789   1.409       .  A
C788        H793   1.084       .  S
C789        C790   1.418       .  A
C790        N791   1.437       .  S
N791        H795   1.046   1_655  S
N791        H796   1.046       .  S
N794        H797   1.046       .  S
N794        H798   1.046       .  S
C799        C804   1.409       .  A
C799        H806   1.083       .  S
C800        C801   1.435       .  A
C801       C1138   1.394   1_655  A
C801       N1144   1.434       .  S
C802       C1137   1.393   1_455  A
C803       C1089   1.469       .  S
C803        C804   1.416       .  A
C804        N805   1.437       .  S
N805        H809   1.046       .  S
N805        H810   1.046       .  S
N808       C1137   1.434       .  S
N808       H1147   1.045       .  S
N808        H812   1.046       .  S
H811       N1144   1.045       .  S
C813       C1150   1.400       .  A
C813       C1154   1.413       .  A
C813        H820   1.084   1_565  S
C814       C1090   1.497       .  S
C814       C1149   1.398       .  A
C814        C815   1.422       .  A
C815        C816   1.416       .  A
C815        N822   1.438       .  S
C816        C817   1.404       .  A
C816        H821   1.083       .  S
C817        C818   1.424       .  A
C818       C1149   1.409       .  A
C818       N1155   1.433       .  S
N819       C1154   1.432       .  S
N819        H823   1.046   1_565  S
N819       H1160   1.046       .  S
N822        H825   1.046       .  S
N822        H826   1.046       .  S
H824       N1155   1.046       .  S
C827       C1164   1.390       .  A
C827        C832   1.400       .  A
C827        H834   1.084       .  S
C828       C1163   1.388   1_545  A
C829       C1166   1.401   1_455  A
C829        N836   1.437   1_465  S
C830       C1165   1.402   1_655  A
C830        C831   1.399   1_655  A
C830        H835   1.084       .  S
C832        N833   1.434       .  S
N833        H837   1.046       .  S
N833        H838   1.046       .  S
N836        H839   1.045       .  S
N836        H840   1.045       .  S
C841        C842   1.418   1_455  A
C841        C846   1.405       .  A
C841        H848   1.083       .  S
C843        C844   1.418       .  A
C843        N850   1.437       .  S
C844        C845   1.417       .  A
C844        H849   1.083       .  S
C846        N847   1.432       .  S
N847        H851   1.045       .  S
N847        H852   1.046       .  S
N850        H853   1.046       .  S
N850        H854   1.046       .  S
C855        C856   1.416       .  A
C855        C860   1.404       .  A
C855        H862   1.083       .  S
C856        C857   1.415       .  A
C857        C858   1.429       .  A
C857       N1200   1.435   1_545  S
C858        C859   1.416       .  A
C858        H863   1.084       .  S
C859        C860   1.412       .  A
C860        N861   1.440       .  S
N861        H865   1.046       .  S
N861        H866   1.044       .  S
N864       C1193   1.439       .  S
N864        H867   1.045       .  S
N864        H868   1.046       .  S
C869        C870   1.416   1_655  A
C869        C874   1.407       .  A
C869        H876   1.084       .  S
C871        C872   1.407       .  A
C871        N878   1.437       .  S
C872        C873   1.414   1_554  A
C872        H877   1.083   1_554  S
C874        N875   1.438   1_554  S
N875        H879   1.046       .  S
N875        H880   1.046       .  S
N878        H881   1.046       .  S
N878        H882   1.046       .  S
C883        C884   1.398       .  A
C883        C888   1.407       .  A
C883        H890   1.084       .  S
C884        C885   1.424       .  A
C885        C886   1.409       .  A
C885        N892   1.439       .  S
C886        C887   1.402       .  A
C886        H891   1.084       .  S
C887        C888   1.427       .  A
C888        N889   1.440       .  S
N889        H893   1.046       .  S
N889        H894   1.040       .  S
N892        H895   1.044       .  S
N892        H896   1.046       .  S
C897        C898   1.415       .  A
C897        C902   1.409       .  A
C897        H904   1.083       .  S
C898        C899   1.419       .  A
C899        C900   1.426       .  A
C899        N906   1.436       .  S
C900        C901   1.412       .  A
C900        H905   1.084       .  S
C901        C902   1.408       .  A
C902        N903   1.438       .  S
N903        H907   1.046       .  S
N903        H908   1.046       .  S
N906        H909   1.045       .  S
N906        H910   1.045       .  S
C911        C912   1.417       .  A
C911        C916   1.414   1_554  A
C911        H918   1.083       .  S
C913        C914   1.409   1_554  A
C913        N920   1.437       .  S
C914        C915   1.417   1_655  A
C914        H919   1.084       .  S
C916        N917   1.436       .  S
N917        H921   1.046       .  S
N917        H922   1.045       .  S
N920        H923   1.046       .  S
N920        H924   1.046       .  S
C925       C1262   1.401   1_655  A
C925        C930   1.408   1_655  A
C925        H932   1.083       .  S
C926       C1261   1.401   1_455  A
C927       C1264   1.392       .  A
C927        N934   1.434       .  S
C928       C1263   1.390       .  A
C928        C929   1.387       .  A
C928        H933   1.085       .  S
C930        N931   1.437   1_455  S
N931        H935   1.046       .  S
N931        H936   1.046   1_655  S
N934        H937   1.045   1_565  S
N934        H938   1.045   1_565  S
C939        C940   1.420   1_455  A
C939        H946   1.083       .  S
C940        C941   1.412       .  A
C941        N948   1.436       .  S
C942        C943   1.412       .  A
C942        H947   1.084       .  S
C943        C944   1.404       .  A
C944        N945   1.432       .  S
N945        H949   1.045       .  S
N945        H950   1.046       .  S
N948        H951   1.045       .  S
N948        H952   1.046       .  S
C953        C954   1.399       .  A
C953        C958   1.408       .  A
C953        H960   1.084       .  S
C954        C955   1.420       .  A
C955        C956   1.407       .  A
C955        N962   1.433       .  S
C956        C957   1.398       .  A
C956        H961   1.084       .  S
C957        C958   1.417       .  A
C958        N959   1.433       .  S
N959        H963   1.046       .  S
N959        H964   1.046       .  S
N962       H1301   1.046       .  S
N962        H966   1.046       .  S
H965       N1298   1.046       .  S
C967       C1308   1.406       .  A
C968       C1019   1.479       .  S
C968        C969   1.419       .  A
C969        C970   1.401   1_655  A
C969        N976   1.433       .  S
C970        H975   1.084       .  S
C971        C972   1.431       .  A
C972       C1303   1.404       .  A
C972       N1309   1.439       .  S
N973       C1308   1.439       .  S
N973        H977   1.046       .  S
N973       H1314   1.046       .  S
N976        H979   1.046       .  S
N976        H980   1.046       .  S
H978       N1309   1.046       .  S
C981        C982   1.401       .  A
C981        C986   1.405       .  A
C981        H988   1.084       .  S
C982        C983   1.423       .  A
C983       C1320   1.414       .  A
C983       N1326   1.432       .  S
C984       C1319   1.415       .  A
C984       C1321   1.400       .  A
C984        H989   1.084   1_565  S
C985       C1020   1.488       .  S
C985       C1320   1.400       .  A
C985        C986   1.415       .  A
C986        N987   1.433       .  S
N987        H991   1.046       .  S
N987        H992   1.045       .  S
N990       C1319   1.432       .  S
N990       H1329   1.046   1_565  S
N990        H994   1.046       .  S
H993       N1326   1.046       .  S
C995        C996   1.419       .  A
C995       C1000   1.408       .  A
C995       H1002   1.083       .  S
C996        C997   1.416       .  A
C997        C998   1.428       .  A
C997       N1004   1.436       .  S
C998        C999   1.416       .  A
C998       H1003   1.084       .  S
C999       C1000   1.412       .  A
C1000      N1001   1.440       .  S
N1001      H1005   1.046       .  S
N1001      H1006   1.044       .  S
N1004      H1007   1.046   1_655  S
N1004      H1008   1.045   1_655  S
O1009     Ni1017   1.957       .  S
O1009      C1019   1.293       .  A
O1010     Ni1017   1.965       .  S
O1010      C1020   1.293       .  A
O1011     Ni1017   1.897       .  S
O1011      C1021   1.273       .  A
O1012     Ni1017   1.893       .  S
O1013     Ni1018   1.964       .  S
O1013      C1022   1.293       .  A
O1014      C1021   1.293       .  A
O1015     Ni1018   1.895       .  S
O1016     Ni1018   1.864       .  S
C1021      C1335   1.494       .  S
C1022      C1290   1.490       .  S
O1023     Ni1031   1.968       .  S
O1023      C1033   1.295   1_655  A
O1024     Ni1031   1.967       .  S
O1024      C1034   1.295       .  A
O1025     Ni1031   1.892       .  S
O1025      C1035   1.274       .  A
O1026     Ni1031   1.864       .  S
O1026      C1036   1.268   1_655  A
O1027     Ni1032   1.979       .  S
O1027      C1036   1.297       .  A
O1028     Ni1032   1.984   1_655  S
O1028      C1035   1.297       .  A
O1029     Ni1032   1.874       .  S
O1029      C1034   1.269   1_455  A
O1030     Ni1032   1.853       .  S
O1030      C1033   1.262       .  A
Ni1031    Ni1032   2.373   1_655  S
C1033      C1262   1.489       .  S
C1034      C1276   1.497       .  S
C1035      C1332   1.520       .  S
C1036      C1251   1.494       .  S
O1037     Ni1045   1.971       .  S
O1037      C1047   1.296       .  A
O1038     Ni1045   1.968       .  S
O1038      C1048   1.295       .  A
O1039     Ni1045   1.897       .  S
O1039      C1049   1.275       .  A
O1040     Ni1045   1.868       .  S
O1040      C1050   1.267       .  A
O1041     Ni1046   1.974   1_545  S
O1041      C1050   1.296   1_545  A
O1042     Ni1046   1.980       .  S
O1042      C1049   1.296       .  A
O1043     Ni1046   1.891       .  S
O1043      C1048   1.271       .  A
O1044     Ni1046   1.863       .  S
O1044      C1047   1.265       .  A
Ni1045    Ni1046   2.377       .  S
C1047      C1307   1.497       .  S
C1048      C1318   1.504       .  S
C1049      C1234   1.517       .  S
C1050      C1220   1.483       .  S
O1051     Ni1059   1.955       .  S
O1051      C1061   1.292       .  A
O1052     Ni1059   1.961       .  S
O1052      C1062   1.293       .  A
O1053     Ni1059   1.891       .  S
O1053      C1063   1.273       .  A
O1054     Ni1059   1.884       .  S
O1054      C1064   1.271       .  A
O1056     Ni1060   1.980       .  S
O1056      C1063   1.296       .  A
O1057     Ni1060   1.894       .  S
O1057      C1062   1.273       .  A
O1058     Ni1060   1.863       .  S
O1058      C1061   1.267       .  A
Ni1059    Ni1060   2.382       .  S
C1061      C1265   1.467       .  S
C1062      C1279   1.491       .  S
C1063      C1237   1.504       .  S
C1064      C1209   1.488       .  S
O1065     Ni1073   1.958       .  S
O1065      C1075   1.292       .  A
O1066     Ni1073   1.959       .  S
O1066      C1076   1.293       .  A
O1067     Ni1073   1.898       .  S
O1067      C1077   1.276       .  A
O1068     Ni1073   1.878       .  S
O1068      C1078   1.270       .  A
O1069     Ni1074   1.972       .  S
O1069      C1078   1.296       .  A
O1070     Ni1074   1.983       .  S
O1070      C1077   1.296       .  A
O1071     Ni1074   1.890       .  S
O1071      C1076   1.272       .  A
O1072     Ni1074   1.861       .  S
O1072      C1075   1.267       .  A
Ni1073    Ni1074   2.378       .  S
C1075      C1164   1.476       .  S
C1076      C1181   1.500       .  S
C1077      C1195   1.523       .  S
C1078      C1248   1.497       .  S
O1079     Ni1087   1.950       .  S
O1079      C1089   1.290       .  A
O1080     Ni1087   1.959       .  S
O1080      C1090   1.292       .  A
O1081     Ni1087   1.903       .  S
O1081      C1091   1.275       .  A
O1082     Ni1087   1.905       .  S
O1083     Ni1088   1.968       .  S
O1083      C1092   1.294       .  A
O1084      C1091   1.294       .  A
O1085     Ni1088   1.899       .  S
O1086     Ni1088   1.866       .  S
C1091      C1192   1.501       .  S
C1092      C1223   1.491       .  S
O1093     Ni1101   1.967       .  S
O1093      C1103   1.295       .  A
O1094     Ni1101   1.962       .  S
O1094      C1104   1.294       .  A
O1095     Ni1101   1.894       .  S
O1095      C1105   1.273       .  A
O1096     Ni1101   1.873       .  S
O1096      C1106   1.269       .  A
O1097     Ni1102   1.967   1_545  S
O1097      C1106   1.294   1_545  A
O1098     Ni1102   1.972       .  S
O1098      C1105   1.294       .  A
O1099     Ni1102   1.891       .  S
O1099      C1104   1.272       .  A
O1100     Ni1102   1.861   1_545  S
O1100      C1103   1.264   1_545  A
Ni1101    Ni1102   2.379       .  S
C1103      C1136   1.491       .  S
C1104      C1153   1.496       .  S
C1105      C1122   1.497       .  S
C1106      C1293   1.481       .  S
O1107     Ni1115   1.972       .  S
O1107      C1117   1.297   1_655  A
O1108     Ni1115   1.971       .  S
O1108      C1118   1.295       .  A
O1109     Ni1115   1.886       .  S
O1109      C1119   1.272       .  A
O1110     Ni1115   1.853       .  S
O1110      C1120   1.265   1_655  A
O1112     Ni1116   1.981   1_655  S
O1112      C1119   1.296       .  A
O1113     Ni1116   1.872       .  S
O1113      C1118   1.268   1_455  A
O1114     Ni1116   1.843       .  S
O1114      C1117   1.260       .  A
Ni1115    Ni1116   2.375   1_655  S
C1117      C1167   1.487       .  S
C1118      C1178   1.500       .  S
C1119      C1125   1.508       .  S
C1120      C1206   1.491       .  S
C1121      C1122   1.412       .  A
C1121      C1126   1.427       .  A
C1121      H1128   1.084       .  S
C1122      C1123   1.407       .  A
C1123      C1124   1.405       .  A
C1123      N1130   1.433       .  S
C1124      C1125   1.411       .  A
C1124      H1129   1.084       .  S
C1125      C1126   1.418       .  A
C1126      N1127   1.437       .  S
N1127      H1131   1.046   1_655  S
N1127      H1132   1.046       .  S
N1130      H1133   1.046       .  S
N1130      H1134   1.046       .  S
C1135      C1140   1.412       .  A
C1135      H1142   1.083       .  S
C1136      C1137   1.433   1_565  A
C1139      C1140   1.417   1_545  A
C1140      N1141   1.437       .  S
N1141      H1145   1.046       .  S
N1141      H1146   1.045       .  S
N1144      H1148   1.045       .  S
C1149      H1156   1.084       .  S
C1150      C1151   1.416       .  A
C1151      C1152   1.412       .  A
C1151      N1158   1.438       .  S
C1152      C1153   1.403       .  A
C1152      H1157   1.083       .  S
C1153      C1154   1.420       .  A
N1155      H1159   1.046       .  S
N1158      H1161   1.045       .  S
N1158      H1162   1.046       .  S
C1163      C1168   1.394       .  A
C1163      H1170   1.085       .  S
C1165      N1172   1.434   1_455  S
C1166      C1167   1.397   1_655  A
C1166      H1171   1.083       .  S
C1168      N1169   1.434       .  S
N1169      H1173   1.045       .  S
N1169      H1174   1.046       .  S
N1172      H1175   1.045       .  S
N1172      H1176   1.043       .  S
C1177      C1178   1.418   1_455  A
C1177      C1182   1.404       .  A
C1177      H1184   1.083       .  S
C1179      C1180   1.416       .  A
C1179      N1186   1.437       .  S
C1180      C1181   1.420       .  A
C1180      H1185   1.083       .  S
C1182      N1183   1.432       .  S
N1183      H1187   1.046       .  S
N1183      H1188   1.046       .  S
N1186      H1189   1.046       .  S
N1186      H1190   1.046       .  S
C1191      C1192   1.414       .  A
C1191      C1196   1.421       .  A
C1191      H1198   1.082       .  S
C1192      C1193   1.407       .  A
C1193      C1194   1.412       .  A
C1194      C1195   1.418       .  A
C1194      H1199   1.083       .  S
C1195      C1196   1.420       .  A
C1196      N1197   1.431       .  S
N1197      H1201   1.045       .  S
N1197      H1202   1.045       .  S
N1200      H1203   1.046       .  S
N1200      H1204   1.044       .  S
C1205      C1206   1.417   1_655  A
C1205      C1210   1.407       .  A
C1205      H1212   1.084       .  S
C1207      C1208   1.410       .  A
C1207      N1214   1.437       .  S
C1208      C1209   1.414   1_554  A
C1208      H1213   1.083   1_554  S
C1210      N1211   1.438   1_554  S
N1211      H1215   1.046       .  S
N1211      H1216   1.045       .  S
N1214      H1217   1.046       .  S
N1214      H1218   1.046       .  S
C1219      C1220   1.396   1_545  A
C1219      C1224   1.405       .  A
C1219      H1226   1.085       .  S
C1220      C1221   1.425       .  A
C1221      C1222   1.409       .  A
C1221      N1228   1.439       .  S
C1222      C1223   1.401       .  A
C1222      H1227   1.083       .  S
C1223      C1224   1.428   1_565  A
C1224      N1225   1.441       .  S
N1225      H1229   1.046       .  S
N1225      H1230   1.041       .  S
N1228      H1231   1.044       .  S
N1228      H1232   1.046       .  S
C1233      C1234   1.412       .  A
C1233      C1238   1.409       .  A
C1233      H1240   1.083       .  S
C1234      C1235   1.420       .  A
C1235      C1236   1.429       .  A
C1235      N1242   1.436       .  S
C1236      C1237   1.413       .  A
C1236      H1241   1.083       .  S
C1237      C1238   1.412       .  A
C1238      N1239   1.439       .  S
N1239      H1243   1.046       .  S
N1239      H1244   1.046       .  S
N1242      H1245   1.045       .  S
N1242      H1246   1.046       .  S
C1247      C1248   1.419       .  A
C1247      C1252   1.412   1_554  A
C1247      H1254   1.083       .  S
C1249      C1250   1.405   1_554  A
C1249      N1256   1.432       .  S
C1250      C1251   1.415   1_655  A
C1250      H1255   1.084       .  S
C1252      N1253   1.437       .  S
N1253      H1257   1.045       .  S
N1253      H1258   1.046       .  S
N1256      H1259   1.046       .  S
N1256      H1260   1.046       .  S
C1261      C1266   1.411   1_655  A
C1261      H1268   1.083       .  S
C1263      N1270   1.434       .  S
C1264      C1265   1.389       .  A
C1264      H1269   1.085       .  S
C1266      N1267   1.438   1_455  S
N1267      H1271   1.046       .  S
N1267      H1272   1.046   1_655  S
N1270      H1273   1.045       .  S
N1270      H1274   1.045       .  S
C1275      C1276   1.417   1_455  A
C1275      H1282   1.084       .  S
C1276      C1277   1.412       .  A
C1277      N1284   1.437       .  S
C1278      C1279   1.412       .  A
C1278      H1283   1.084       .  S
C1279      C1280   1.405       .  A
C1280      N1281   1.432       .  S
N1281      H1285   1.045       .  S
N1281      H1286   1.046       .  S
N1284      H1287   1.045       .  S
N1284      H1288   1.046       .  S
C1289      C1290   1.400       .  A
C1289      C1294   1.410       .  A
C1289      H1296   1.084       .  S
C1290      C1291   1.420   1_565  A
C1291      C1292   1.406       .  A
C1291      N1298   1.433       .  S
C1292      C1293   1.396   1_545  A
C1292      H1297   1.084       .  S
C1293      C1294   1.417       .  A
C1294      N1295   1.433       .  S
N1295      H1299   1.046       .  S
N1295      H1300   1.045       .  S
N1298      H1302   1.046       .  S
C1304      C1305   1.418   1_545  A
C1305      C1306   1.405   1_655  A
C1305      N1312   1.433       .  S
C1306      H1311   1.083       .  S
C1307      C1308   1.433   1_565  A
N1309      H1313   1.046       .  S
N1312      H1315   1.046       .  S
N1312      H1316   1.046       .  S
C1317      C1318   1.403       .  A
C1317      C1322   1.411       .  A
C1317      H1324   1.083       .  S
C1318      C1319   1.424       .  A
C1320      H1325   1.084       .  S
C1321      C1322   1.418       .  A
C1322      N1323   1.433       .  S
N1323      H1327   1.046       .  S
N1323      H1328   1.046       .  S
N1326      H1330   1.046       .  S
C1331      C1332   1.418       .  A
C1331      C1336   1.406       .  A
C1331      H1338   1.083       .  S
C1332      C1333   1.417       .  A
C1333      C1334   1.425       .  A
C1333      N1340   1.436       .  S
C1334      C1335   1.413       .  A
C1334      H1339   1.084       .  S
C1335      C1336   1.411       .  A
C1336      N1337   1.439       .  S
N1337      H1341   1.046       .  S
N1337      H1342   1.044       .  S
N1340      H1343   1.045   1_655  S
N1340      H1344   1.046   1_655  S
