geometry optimzed in LAMMPS
_audit_creation_date              2020-12-01 
_audit_creation_method            'lammps2cif' 
_symmetry_space_group_name_H-M    'P1' 
_symmetry_Int_Tables_number       1 
_symmetry_cell_setting            triclinic 
loop_ 
_symmetry_equiv_pos_as_xyz 
  x,y,z 
_cell_length_a                    52.71546605 
_cell_length_b                    52.708431287030486 
_cell_length_c                    52.6740775171228 
_cell_angle_alpha                 90.02715788057093 
_cell_angle_beta                  90.0229025717006 
_cell_angle_gamma                 90.01045213309139 
loop_ 
_atom_site_label 
_atom_site_type_symbol 
_atom_site_fract_x 
_atom_site_fract_y 
_atom_site_fract_z 
_atom_site_charge 
O1          O  0.72565583  0.53039270  0.75894934    -0.73000
O2          O  0.76515415  0.47434605  0.72584631    -0.73900
O3          O  0.72556014  0.47673403  0.76182313    -0.62600
O4          O  0.76508193  0.52796736  0.72246617    -0.71000
O5          O  0.79407607  0.52924241  0.75296806    -0.70500
O6          O  0.75358625  0.47845618  0.79315057    -0.61800
O7          O  0.79329709  0.47578348  0.75703747    -0.74300
O8          O  0.75440574  0.53202307  0.78949881    -0.73100
Cu9        Cu  0.74439662  0.50233677  0.74119170     1.04600
Cu10       Cu  0.77484365  0.50399872  0.77423724     1.04300
C11         C  0.73364791  0.53991531  0.77977864     0.93200
C12         C  0.78535358  0.46597025  0.73636425     0.92400
C13         C  0.73316636  0.46942193  0.78364469     0.84500
C14         C  0.78597030  0.53649658  0.73126987     0.90800
O15         O  0.46303478  0.82128414  0.79916518    -0.73000
O16         O  0.40969200  0.85834874  0.75977741    -0.73900
O17         O  0.40927204  0.82004212  0.79713110    -0.62600
O18         O  0.46339610  0.85957987  0.76146207    -0.71000
O19         O  0.46467156  0.83020575  0.73147352    -0.70500
O20         O  0.41209347  0.79003500  0.76759060    -0.61800
O21         O  0.41115597  0.82826564  0.73036513    -0.74300
O22         O  0.46502553  0.79206753  0.76887522    -0.73100
Cu23       Cu  0.43631106  0.84090534  0.78044550     1.04600
Cu24       Cu  0.43830222  0.80920316  0.74849507     1.04300
C25         C  0.47229276  0.80069941  0.79031741     0.93200
C26         C  0.40165207  0.84880672  0.73899300     0.92400
C27         C  0.40242183  0.79864558  0.78802458     0.84500
C28         C  0.47271517  0.85109332  0.74075918     0.90800
O29         O  0.75395334  0.85756145  0.46113466    -0.73000
O30         O  0.79053176  0.81920535  0.40671910    -0.73900
O31         O  0.75317861  0.85776217  0.40748992    -0.62600
O32         O  0.79140175  0.81938020  0.46047586    -0.71000
O33         O  0.76128042  0.79013631  0.46121649    -0.70500
O34         O  0.72297784  0.82851682  0.40758001    -0.61800
O35         O  0.76038473  0.78993168  0.40741586    -0.74300
O36         O  0.72382939  0.82819926  0.46140979    -0.73100
Cu37       Cu  0.77332473  0.83947211  0.43388872     1.04600
Cu38       Cu  0.74108543  0.80814779  0.43436375     1.04300
C39         C  0.73311287  0.84888302  0.46994643     0.93200
C40         C  0.78128448  0.79834901  0.39853598     0.92400
C41         C  0.73189993  0.84953050  0.39935414     0.84500
C42         C  0.78232014  0.79883975  0.46956975     0.90800
C43         C  0.27243295  0.94711098  0.23498886     0.03100
C44         C  0.27293993  0.97352557  0.23840597    -0.13000
C45         C  0.26164336  0.98509884  0.25982887     0.00600
C46         C  0.24860452  0.96939902  0.27714285    -0.11600
C47         C  0.24660748  0.94317292  0.27292290     0.03100
C48         C  0.25886611  0.93210892  0.25215440    -0.11000
H49         H  0.28241705  0.98476610  0.22411999     0.08700
H50         H  0.24002457  0.97723196  0.29406191     0.06200
H51         H  0.25853082  0.91166705  0.24993986     0.06100
C52         C  0.24832436  0.05317062  0.28253310     0.03100
C53         C  0.26778085  0.06638085  0.27001220    -0.13000
C54         C  0.28514819  0.05342269  0.25466735     0.00600
C55         C  0.28390711  0.02697145  0.25290055    -0.11600
C56         C  0.26392052  0.01322259  0.26411734     0.03100
C57         C  0.24605011  0.02677384  0.27884767    -0.11000
H58         H  0.26916208  0.08681842  0.27181594     0.08700
H59         H  0.29861239  0.01745749  0.24223964     0.06200
H60         H  0.22992741  0.01714967  0.28708508     0.06100
O61         O  0.46209100  0.18207435  0.15092966    -0.73000
O62         O  0.40568136  0.21686124  0.11231451    -0.73900
O63         O  0.40827583  0.17997060  0.15180286    -0.62600
O64         O  0.45975991  0.21928775  0.11128532    -0.71000
O65         O  0.45986366  0.18870015  0.08240545    -0.70500
O66         O  0.40926244  0.14925932  0.12307987    -0.61800
O67         O  0.40653513  0.18597888  0.08374628    -0.74300
O68         O  0.46258354  0.15188967  0.12170390    -0.73100
Cu69       Cu  0.43393774  0.20068615  0.13259644     1.04600
Cu70       Cu  0.43460196  0.16796418  0.10176643     1.04300
C71         C  0.47082779  0.16099697  0.14260017     0.93200
C72         C  0.39726419  0.20684403  0.09184164     0.92400
C73         C  0.40089191  0.15821444  0.14400776     0.84500
C74         C  0.46777691  0.21024001  0.09023063     0.90800
C75         C  0.60076726  0.95237639  0.23765001     0.03100
C76         C  0.60284391  0.97892013  0.23734517    -0.13000
C77         C  0.61654781  0.99208685  0.25629937     0.00600
C78         C  0.62908148  0.97748062  0.27500816    -0.11600
C79         C  0.62871463  0.95089902  0.27424507     0.03100
C80         C  0.61396713  0.93849546  0.25601907    -0.11000
H81         H  0.59363530  0.98887714  0.22200601     0.08700
H82         H  0.63941707  0.98629129  0.29033152     0.06200
H83         H  0.61246187  0.91799330  0.25647494     0.06100
C84         C  0.63576276  0.06028638  0.27293749     0.03100
C85         C  0.61851750  0.07431630  0.25845260    -0.13000
C86         C  0.60063313  0.06201280  0.24319254     0.00600
C87         C  0.59968462  0.03538995  0.24303636    -0.11600
C88         C  0.61755133  0.02069043  0.25665619     0.03100
C89         C  0.63597284  0.03376644  0.27112752    -0.11000
H90         H  0.61857087  0.09485058  0.25962908     0.08700
H91         H  0.58463161  0.02657071  0.23232298     0.06200
H92         H  0.65037908  0.02374980  0.28166232     0.06100
O93         O  0.77019985  0.20717303  0.41339271    -0.73000
O94         O  0.73215830  0.16928515  0.46693977    -0.73900
O95         O  0.76923097  0.20754142  0.46723253    -0.62600
O96         O  0.73284782  0.16908413  0.41320294    -0.71000
O97         O  0.76250892  0.13925272  0.41392650    -0.70500
O98         O  0.79959528  0.17842346  0.46770194    -0.61800
O99         O  0.76226304  0.13999823  0.46769117    -0.74300
O100        O  0.80001512  0.17765561  0.41386710    -0.73100
Cu101      Cu  0.75007951  0.18928676  0.44017073     1.04600
Cu102      Cu  0.78216838  0.15780881  0.44081636     1.04300
C103        C  0.79108722  0.19828515  0.40486756     0.93200
C104        C  0.74125040  0.14874759  0.47598896     0.92400
C105        C  0.79000022  0.19898701  0.47625538     0.84500
C106        C  0.74182346  0.14815448  0.40495071     0.90800
C107        C  0.60258047  0.94445318  0.63686493     0.03100
C108        C  0.61601563  0.93066891  0.61857674    -0.13000
C109        C  0.63102137  0.94319559  0.60070848     0.00600
C110        C  0.63159887  0.96975009  0.60030007    -0.11600
C111        C  0.61836297  0.98416872  0.61858809     0.03100
C112        C  0.60458152  0.97099039  0.63733797    -0.11000
H113        H  0.61462639  0.91017303  0.61800609     0.08700
H114        H  0.64193839  0.97873069  0.58506153     0.06200
H115        H  0.59508336  0.98106286  0.65245427     0.06100
C116        C  0.59804303  0.05333519  0.62759120     0.03100
C117        C  0.59861997  0.02679789  0.62921635    -0.13000
C118        C  0.61813199  0.01262645  0.61752700     0.00600
C119        C  0.63687331  0.02599921  0.60394752    -0.11600
C120        C  0.63544526  0.05233401  0.60096606     0.03100
C121        C  0.61634234  0.06603117  0.61320815    -0.11000
H122        H  0.58327269  0.01757825  0.63918087     0.08700
H123        H  0.65274013  0.01631038  0.59533120     0.06200
H124        H  0.61556599  0.08649796  0.61132309     0.06100
C125        C  0.24602100  0.93423220  0.59182777     0.03100
C126        C  0.24492556  0.96088848  0.59206340    -0.13000
C127        C  0.25768912  0.97515623  0.61091396     0.00600
C128        C  0.27172277  0.96183855  0.62929573    -0.11600
C129        C  0.27436115  0.93551663  0.62801853     0.03100
C130        C  0.26158138  0.92174907  0.60933570    -0.11000
H131        H  0.23400816  0.97010730  0.57739831     0.08700
H132        H  0.28111371  0.97162938  0.64467313     0.06200
H133        H  0.26369159  0.90130648  0.60852831     0.06100
C134        C  0.27455204  0.04449995  0.62493070     0.03100
C135        C  0.27562271  0.01792612  0.62414502    -0.13000
C136        C  0.25671471  0.00362092  0.61145275     0.00600
C137        C  0.23732129  0.01694170  0.59871351    -0.11600
C138        C  0.23735711  0.04345573  0.59789173     0.03100
C139        C  0.25550333  0.05708631  0.61153353    -0.11000
H140        H  0.29173133  0.00885384  0.63297273     0.08700
H141        H  0.22242916  0.00710478  0.58866064     0.06200
H142        H  0.25502934  0.07765365  0.61126867     0.06100
O143        O  0.40378821  0.18399191  0.78188646    -0.73000
O144        O  0.45717490  0.14408955  0.74516068    -0.73900
O145        O  0.45733781  0.18225613  0.78316239    -0.62600
O146        O  0.40373414  0.14568451  0.74411159    -0.71000
O147        O  0.40640555  0.17439379  0.71333476    -0.70500
O148        O  0.45824601  0.21250632  0.75404348    -0.61800
O149        O  0.45975663  0.17429860  0.71600751    -0.74300
O150        O  0.40445450  0.21299870  0.75155747    -0.73100
Cu151      Cu  0.43045349  0.16301672  0.76461958     1.04600
Cu152      Cu  0.43224546  0.19463215  0.73270372     1.04300
C153        C  0.39550953  0.20478861  0.77258765     0.93200
C154        C  0.46676112  0.15275477  0.72464133     0.92400
C155        C  0.46609647  0.20333597  0.77509504     0.84500
C156        C  0.39715334  0.15387630  0.72230520     0.90800
O157        O  0.14677982  0.17200104  0.41412343    -0.73000
O158        O  0.10960672  0.20780329  0.46975534    -0.73900
O159        O  0.14574281  0.16833745  0.46772847    -0.62600
O160        O  0.11015724  0.21131438  0.41620006    -0.71000
O161        O  0.07917134  0.18301619  0.41417296    -0.70500
O162        O  0.11520522  0.13957331  0.46495340    -0.61800
O163        O  0.07890686  0.17926728  0.46808813    -0.74300
O164        O  0.11603505  0.14364019  0.41104892    -0.73100
Cu165      Cu  0.12911865  0.19080730  0.44200588     1.04600
Cu166      Cu  0.09623643  0.16036280  0.43945702     1.04300
C167        C  0.13750421  0.15224881  0.40360175     0.93200
C168        C  0.08851080  0.19927935  0.47800902     0.92400
C169        C  0.13603933  0.14723641  0.47465845     0.84500
C170        C  0.08883258  0.20411925  0.40719481     0.90800
C171        C  0.62606915  0.33888388  0.87371510     0.03100
C172        C  0.62758599  0.33642426  0.90018333    -0.13000
C173        C  0.61485211  0.31665643  0.91306250     0.00600
C174        C  0.60037940  0.29955317  0.89850606    -0.11600
C175        C  0.59751587  0.30276366  0.87223387     0.03100
C176        C  0.61059475  0.32232385  0.85986641    -0.11000
H177        H  0.63840094  0.35051993  0.91042126     0.08700
H178        H  0.59100205  0.28359751  0.90732813     0.06200
H179        H  0.60866931  0.32473886  0.83952654     0.06100
C180        C  0.59658026  0.30171016  0.98186784     0.03100
C181        C  0.59640355  0.30212107  0.95523417    -0.13000
C182        C  0.61583812  0.31451081  0.94148658     0.00600
C183        C  0.63554608  0.32611393  0.95535661    -0.11600
C184        C  0.63492747  0.32719957  0.98193573     0.03100
C185        C  0.61553056  0.31474836  0.99507940    -0.11000
H186        H  0.58044036  0.29351984  0.94565925     0.08700
H187        H  0.65133376  0.33501410  0.94578138     0.06200
H188        H  0.61473269  0.31574987  0.01561593     0.06100
O189        O  0.75724581  0.51728670  0.14441680    -0.73000
O190        O  0.72392301  0.46269666  0.10341194    -0.73900
O191        O  0.75973230  0.46404082  0.14364854    -0.62600
O192        O  0.72145615  0.51638714  0.10447559    -0.71000
O193        O  0.75255429  0.51845034  0.07635413    -0.70500
O194        O  0.79093907  0.46562425  0.11562338    -0.61800
O195        O  0.75502444  0.46482052  0.07533632    -0.74300
O196        O  0.78838081  0.51909010  0.11630392    -0.73100
Cu197      Cu  0.73946042  0.49000576  0.12489494     1.04600
Cu198      Cu  0.77277040  0.49203049  0.09488528     1.04300
C199        C  0.77840156  0.52655677  0.13707022     0.93200
C200        C  0.73417643  0.45504385  0.08279169     0.92400
C201        C  0.78165550  0.45690134  0.13628244     0.84500
C202        C  0.73099044  0.52604244  0.08438765     0.90800
C203        C  0.63158931  0.66312243  0.88453839     0.03100
C204        C  0.63515973  0.66582904  0.91085057    -0.13000
C205        C  0.61875036  0.68113287  0.92553535     0.00600
C206        C  0.59947488  0.69463944  0.91279389    -0.11600
C207        C  0.59682245  0.69330571  0.88641171     0.03100
C208        C  0.61263169  0.67725759  0.87245807    -0.11000
H209        H  0.65092266  0.65601391  0.91951518     0.08700
H210        H  0.58618966  0.70634553  0.92305958     0.06200
H211        H  0.60990251  0.67554845  0.85212879     0.06100
C212        C  0.60683797  0.70089828  0.99427620     0.03100
C213        C  0.61905833  0.68139736  0.00756281    -0.13000
C214        C  0.63221573  0.66244622  0.99440056     0.00600
C215        C  0.63239233  0.66252445  0.96777524    -0.11600
C216        C  0.62072773  0.68221356  0.95397070     0.03100
C217        C  0.60933540  0.70210426  0.96779892    -0.11000
H218        H  0.61761377  0.68039041  0.02806262     0.08700
H219        H  0.64140694  0.64682969  0.95817183     0.06200
H220        H  0.60159718  0.71848404  0.95823648     0.06100
C221        C  0.27557368  0.69298881  0.88391170     0.03100
C222        C  0.25676185  0.67935201  0.87102528    -0.13000
C223        C  0.23839087  0.66582935  0.88448802     0.00600
C224        C  0.23702812  0.66807525  0.91092012    -0.11600
C225        C  0.25574112  0.68158992  0.92450047     0.03100
C226        C  0.27542361  0.69319080  0.91056910    -0.11000
H227        H  0.25638464  0.67888104  0.85048100     0.08700
H228        H  0.22162055  0.65860463  0.92054792     0.06200
H229        H  0.29114762  0.70211833  0.92022044     0.06100
C230        C  0.24297393  0.66492144  0.99400132     0.03100
C231        C  0.24282204  0.66416241  0.96740555    -0.13000
C232        C  0.25545475  0.68280110  0.95295982     0.00600
C233        C  0.26854149  0.70216998  0.96606505    -0.11600
C234        C  0.27008304  0.70218519  0.99262644     0.03100
C235        C  0.25683821  0.68380284  0.00651134    -0.11000
H236        H  0.23287939  0.64871917  0.95832163     0.08700
H237        H  0.27830280  0.71703031  0.95587668     0.06200
H238        H  0.25776481  0.68387421  0.02707213     0.06100
O239        O  0.40933900  0.83564652  0.13895159    -0.73000
O240        O  0.46566907  0.79646358  0.10615363    -0.73900
O241        O  0.46320157  0.83531711  0.14281552    -0.62600
O242        O  0.41162862  0.79697127  0.10255632    -0.71000
O243        O  0.41362269  0.82560382  0.07181241    -0.70500
O244        O  0.46552138  0.86408982  0.11231097    -0.61800
O245        O  0.46772517  0.82509540  0.07555410    -0.74300
O246        O  0.41160416  0.86444213  0.10840848    -0.73100
Cu247      Cu  0.43742517  0.81507560  0.12363520     1.04600
Cu248      Cu  0.43975495  0.84578653  0.09093332     1.04300
C249        C  0.40128225  0.85608320  0.12868291     0.93200
C250        C  0.47593069  0.80470140  0.08580104     0.92400
C251        C  0.47262668  0.85580794  0.13399489     0.84500
C252        C  0.40372071  0.80563253  0.08134269     0.90800
C253        C  0.27285491  0.31014535  0.87545672     0.03100
C254        C  0.27433539  0.31021329  0.90213193    -0.13000
C255        C  0.25732294  0.32480773  0.91697858     0.00600
C256        C  0.23879155  0.33919025  0.90395263    -0.11600
C257        C  0.23816268  0.34025038  0.87740144     0.03100
C258        C  0.25476540  0.32521260  0.86325209    -0.11000
H259        H  0.28908687  0.29900782  0.91083170     0.08700
H260        H  0.22449976  0.34987242  0.91396639     0.06200
H261        H  0.25418277  0.32586721  0.84268653     0.06100
C262        C  0.24763438  0.34574373  0.98612237     0.03100
C263        C  0.26219747  0.32799586  0.99929029    -0.13000
C264        C  0.27533770  0.30910526  0.98608620     0.00600
C265        C  0.27321109  0.30756814  0.95950752    -0.11600
C266        C  0.25914180  0.32573713  0.94561501     0.03100
C267        C  0.24690824  0.34514564  0.95955857    -0.11000
H268        H  0.26324518  0.32884536  0.01983233     0.08700
H269        H  0.28256173  0.29194320  0.95014306     0.06200
H270        H  0.23671118  0.36026459  0.95028693     0.06100
C271        C  0.88155783  0.32793601  0.64648077     0.03100
C272        C  0.90810698  0.32640983  0.64727755    -0.13000
C273        C  0.92173651  0.31257001  0.62883918     0.00600
C274        C  0.90778432  0.29836117  0.61101000    -0.11600
C275        C  0.88124091  0.29816269  0.61137688     0.03100
C276        C  0.86817478  0.31347448  0.62865884    -0.11000
H277        H  0.91780618  0.33685911  0.66201256     0.08700
H278        H  0.91713679  0.28816315  0.59588290     0.06200
H279        H  0.84767396  0.31467711  0.62768979     0.06100
C280        C  0.99028988  0.30107901  0.60775863     0.03100
C281        C  0.00259801  0.32181959  0.61899017    -0.13000
C282        C  0.98900394  0.33869153  0.63426085     0.00600
C283        C  0.96284380  0.33576544  0.63719332    -0.11600
C284        C  0.95003511  0.31478997  0.62670620     0.03100
C285        C  0.96444221  0.29695096  0.61284216    -0.11000
H286        H  0.02268868  0.32487834  0.61588021     0.08700
H287        H  0.95285899  0.35039543  0.64749309     0.06200
H288        H  0.95579739  0.27987259  0.60550163     0.06100
O289        O  0.14030172  0.47754491  0.76393276    -0.73000
O290        O  0.10436419  0.53467195  0.72982529    -0.73900
O291        O  0.14164562  0.53111203  0.76791139    -0.62600
O292        O  0.10293204  0.48141976  0.72578583    -0.71000
O293        O  0.07273026  0.47988330  0.75493875    -0.70500
O294        O  0.11176847  0.52959469  0.79740831    -0.61800
O295        O  0.07432874  0.53355813  0.75914456    -0.74300
O296        O  0.11033080  0.47602255  0.79335136    -0.73100
Cu297      Cu  0.12332958  0.50621699  0.74586633     1.04600
Cu298      Cu  0.09120782  0.50469682  0.77723994     1.04300
C299        C  0.13113165  0.46771117  0.78406784     0.93200
C300        C  0.08376065  0.54336473  0.73906853     0.92400
C301        C  0.13283990  0.53837687  0.78930783     0.84500
C302        C  0.08178993  0.47261623  0.73362989     0.90800
C303        C  0.88113971  0.66747229  0.63038613     0.03100
C304        C  0.86792949  0.68441953  0.61489365    -0.13000
C305        C  0.88088903  0.70378591  0.60212269     0.00600
C306        C  0.90711370  0.70658725  0.60572345    -0.11600
C307        C  0.92106896  0.68865979  0.61979945     0.03100
C308        C  0.90754031  0.66917418  0.63225178    -0.11000
H309        H  0.84761211  0.68228326  0.61254947     0.08700
H310        H  0.91642937  0.72260927  0.59697093     0.06200
H311        H  0.91715883  0.65447028  0.64278540     0.06100
C312        C  0.98990043  0.69929976  0.59933491     0.03100
C313        C  0.00281548  0.68456544  0.61720864    -0.13000
C314        C  0.98939918  0.67224429  0.63644256     0.00600
C315        C  0.96317886  0.67554564  0.63849401    -0.11600
C316        C  0.94951552  0.68906862  0.61995546     0.03100
C317        C  0.96338220  0.70115109  0.60044427    -0.11000
H318        H  0.02321170  0.68229668  0.61586080     0.08700
H319        H  0.95372029  0.66686602  0.65447310     0.06200
H320        H  0.95390300  0.71120645  0.58530006     0.06100
O321        O  0.08052621  0.81119180  0.45403805    -0.73000
O322        O  0.12175341  0.84705645  0.40116464    -0.73900
O323        O  0.08188275  0.81044668  0.40036731    -0.62600
O324        O  0.12010653  0.84783851  0.45461052    -0.71000
O325        O  0.14895915  0.81738524  0.45535795    -0.70500
O326        O  0.10962086  0.77882367  0.40289453    -0.61800
O327        O  0.14962203  0.81565222  0.40184011    -0.74300
O328        O  0.10963476  0.78090850  0.45618331    -0.73100
Cu329      Cu  0.10006067  0.83020954  0.42744290     1.04600
Cu330      Cu  0.13045230  0.79713251  0.42901975     1.04300
C331        C  0.08856477  0.79035443  0.46347988     0.93200
C332        C  0.14262725  0.83733050  0.39357042     0.92400
C333        C  0.08929541  0.78834803  0.39376068     0.84500
C334        C  0.14073607  0.83871720  0.46345633     0.90800
C335        C  0.87383880  0.68331852  0.27933364     0.03100
C336        C  0.86040431  0.66387706  0.26752190    -0.13000
C337        C  0.87264242  0.64734456  0.25086486     0.00600
C338        C  0.89911167  0.64879391  0.24809852    -0.11600
C339        C  0.91317419  0.66832043  0.26003023     0.03100
C340        C  0.89983440  0.68610260  0.27492038    -0.11000
H341        H  0.84014395  0.66218942  0.27065285     0.08700
H342        H  0.90832648  0.63479933  0.23630524     0.06200
H343        H  0.90933819  0.70221051  0.28334637     0.06100
C344        C  0.98053445  0.65873086  0.23475089     0.03100
C345        C  0.99472692  0.67219391  0.25278985    -0.13000
C346        C  0.98268909  0.68513255  0.27263134     0.00600
C347        C  0.95630025  0.68311559  0.27529886    -0.11600
C348        C  0.94143017  0.67023522  0.25709327     0.03100
C349        C  0.95396635  0.65875121  0.23644548    -0.11000
H350        H  0.01523523  0.67233008  0.25165302     0.08700
H351        H  0.94774654  0.69129593  0.29204160     0.06200
H352        H  0.94336863  0.64946382  0.22154883     0.06100
C353        C  0.88428533  0.30392295  0.27621630     0.03100
C354        C  0.91086477  0.30438673  0.27608866    -0.13000
C355        C  0.92434988  0.32262320  0.26184629     0.00600
C356        C  0.91016617  0.34025322  0.24753170    -0.11600
C357        C  0.88368725  0.33871813  0.24616525     0.03100
C358        C  0.87075258  0.32067803  0.26069999    -0.11000
H359        H  0.92058738  0.29013557  0.28712483     0.08700
H360        H  0.91931752  0.35533403  0.23712213     0.06200
H361        H  0.85019517  0.32019958  0.26049073     0.06100
C362        C  0.99291120  0.33668933  0.24218727     0.03100
C363        C  0.00647439  0.32365783  0.26093555    -0.13000
C364        C  0.99361043  0.31034242  0.27994136     0.00600
C365        C  0.96707352  0.31107908  0.28094462    -0.11600
C366        C  0.95286789  0.32316205  0.26172486     0.03100
C367        C  0.96632836  0.33551989  0.24213231    -0.11000
H368        H  0.02702051  0.32423671  0.26112279     0.08700
H369        H  0.95792120  0.30180086  0.29674509     0.06200
H370        H  0.95653611  0.34433093  0.22644337     0.06100
O371        O  0.11783058  0.47399443  0.07669459    -0.73000
O372        O  0.07646954  0.52647004  0.11249647    -0.73900
O373        O  0.11737442  0.52759749  0.07753078    -0.62600
O374        O  0.07720421  0.47241953  0.11194418    -0.71000
O375        O  0.10520760  0.47216732  0.14324109    -0.70500
O376        O  0.14434901  0.52758276  0.10968510    -0.61800
O377        O  0.10363397  0.52589105  0.14462936    -0.74300
O378        O  0.14564207  0.47403289  0.10826248    -0.73100
Cu379      Cu  0.09620984  0.50012627  0.09357760     1.04600
Cu380      Cu  0.12560339  0.49992991  0.12757441     1.04300
C381        C  0.13841864  0.46590444  0.08658812     0.93200
C382        C  0.08344722  0.53445981  0.13429673     0.92400
C383        C  0.13742131  0.53625237  0.08816281     0.84500
C384        C  0.08514307  0.46325833  0.13297068     0.90800
C385        C  0.00621425  0.35314895  0.22365464    -0.19900
C386        C  0.02712344  0.34450857  0.20939769     0.36300
C387        C  0.03981324  0.36130840  0.19308197    -0.25900
C388        C  0.03190797  0.38663010  0.19075684     0.02800
C389        C  0.01084545  0.39525728  0.20479772     0.27600
C390        C  0.99810953  0.37838073  0.22094352    -0.25000
N391        N  0.03524465  0.31863899  0.21113507    -0.82400
H392        H  0.05593828  0.35460227  0.18223015     0.13400
C393        C  0.04630553  0.40438028  0.17441186     0.02700
N394        N  0.00287485  0.42129090  0.20303267    -0.80900
H395        H  0.98220696  0.38515420  0.23207874     0.18200
C396        C  0.03396975  0.41645243  0.15415884    -0.25800
C397        C  0.04626047  0.43520899  0.13968931     0.36200
C398        C  0.07148461  0.44216918  0.14585751    -0.19800
C399        C  0.08399143  0.42924386  0.16562766    -0.25100
C400        C  0.07165969  0.41056877  0.18001347     0.27600
H401        H  0.01449017  0.41142644  0.14989874     0.13400
N402        N  0.03288024  0.44759064  0.11939469    -0.82300
H403        H  0.10341496  0.43406189  0.17030984     0.18200
N404        N  0.08454207  0.39838330  0.20076510    -0.80900
H405        H  0.01404667  0.44139345  0.11861635     0.33900
H406        H  0.04125189  0.44180081  0.10236631     0.38400
H407        H  0.10319346  0.40497355  0.20228229     0.33800
H408        H  0.07531391  0.40364842  0.21752366     0.30500
H409        H  0.98700987  0.42454694  0.21448587     0.33800
H410        H  0.01750411  0.43256428  0.21029229     0.30500
H411        H  0.05420876  0.31851925  0.21696968     0.38400
H412        H  0.03434878  0.31064623  0.19299238     0.33900
C413        C  0.99347009  0.64258057  0.21560821    -0.19900
C414        C  0.01476192  0.65122671  0.20176520     0.36300
C415        C  0.02838630  0.63401111  0.18662991    -0.25900
C416        C  0.02079146  0.60862642  0.18474553     0.02800
C417        C  0.99862215  0.60037494  0.19706763     0.27600
C418        C  0.98526682  0.61737444  0.21255233    -0.25000
N419        N  0.02255638  0.67731642  0.20329307    -0.82400
H420        H  0.04532257  0.64019736  0.17675466     0.13400
C421        C  0.03719566  0.59030283  0.17143829     0.02700
N422        N  0.99020970  0.57457295  0.19426672    -0.80900
H423        H  0.96892275  0.61062892  0.22303333     0.18200
C424        C  0.05148129  0.57325204  0.18595335    -0.25800
C425        C  0.06689430  0.55494260  0.17431727     0.36200
C426        C  0.06795315  0.55375349  0.14752685    -0.19800
C427        C  0.05370674  0.57107361  0.13304777    -0.25100
C428        C  0.03836609  0.58943479  0.14479307     0.27600
H429        H  0.05037647  0.57414558  0.20648343     0.13400
N430        N  0.08100818  0.53730442  0.18961913    -0.82300
H431        H  0.05461871  0.57033967  0.11250999     0.18200
N432        N  0.02392116  0.60711368  0.12987331    -0.80900
H433        H  0.07840378  0.54108859  0.20892542     0.33900
H434        H  0.07351976  0.51921803  0.18634094     0.38400
H435        H  0.02706119  0.60407806  0.11050944     0.33800
H436        H  0.00470661  0.60344642  0.13314470     0.30500
H437        H  0.97363519  0.57148072  0.20470963     0.33800
H438        H  0.98545186  0.57187200  0.17517709     0.30500
H439        H  0.00796029  0.68836729  0.19566135     0.38400
H440        H  0.03858839  0.68049229  0.19205527     0.33900
C441        C  0.99784717  0.70047064  0.29081578    -0.19900
C442        C  0.99117621  0.72578442  0.29665646     0.36300
C443        C  0.00624635  0.73974472  0.31367424    -0.25900
C444        C  0.02831142  0.72928539  0.32430135     0.02800
C445        C  0.03520266  0.70414152  0.31813392     0.27600
C446        C  0.01973450  0.68992108  0.30172540    -0.25000
N447        N  0.96946196  0.73739107  0.28489231    -0.82400
H448        H  0.00088954  0.75899008  0.31852945     0.13400
C449        C  0.04396741  0.74482182  0.34193061     0.02700
N450        N  0.05807734  0.69327946  0.32827719    -0.80900
H451        H  0.02487813  0.67052214  0.29727307     0.18200
C452        C  0.04962733  0.73528720  0.36616509    -0.25800
C453        C  0.06461891  0.74918233  0.38326883     0.36200
C454        C  0.07374656  0.77327885  0.37612680    -0.19800
C455        C  0.06764508  0.78316845  0.35221963    -0.25100
C456        C  0.05322746  0.76896382  0.33480686     0.27600
H457        H  0.04218338  0.71696953  0.37178991     0.13400
N458        N  0.07030343  0.73912550  0.40800572    -0.82300
H459        H  0.07472023  0.80173111  0.34691751     0.18200
N460        N  0.04834671  0.77872381  0.30979650    -0.80900
H461        H  0.06227104  0.72112413  0.41022367     0.33900
H462        H  0.06165306  0.75088612  0.42144919     0.38400
H463        H  0.05648126  0.79668467  0.30761016     0.33800
H464        H  0.05741046  0.76676505  0.29681305     0.30500
H465        H  0.06035594  0.67460833  0.32196524     0.33800
H466        H  0.07335549  0.70363360  0.32101271     0.30500
H467        H  0.97303085  0.73843211  0.26538856     0.38400
H468        H  0.96719023  0.75604203  0.29124667     0.33900
C469        C  0.00407649  0.71224519  0.57895064    -0.19900
C470        C  0.01909620  0.69846599  0.56162084     0.36300
C471        C  0.03279950  0.71158608  0.54293863    -0.25900
C472        C  0.03174348  0.73813263  0.54133987     0.02800
C473        C  0.01661405  0.75188879  0.55861687     0.27600
C474        C  0.00272634  0.73874389  0.57714928    -0.25000
N475        N  0.02013062  0.67124087  0.56294581    -0.82400
H476        H  0.04420904  0.70110209  0.52941809     0.13400
C477        C  0.04647026  0.75128207  0.52136174     0.02700
N478        N  0.01572215  0.77912827  0.55745055    -0.80900
H479        H  0.99119795  0.74919436  0.59059874     0.18200
C480        C  0.03366201  0.76639079  0.50360362    -0.25800
C481        C  0.04689876  0.77919381  0.48436030     0.36200
C482        C  0.07358377  0.77697075  0.48306035    -0.19800
C483        C  0.08630670  0.76148597  0.50064417    -0.25100
C484        C  0.07303839  0.74871743  0.51986857     0.27600
H485        H  0.01318576  0.76791476  0.50461379     0.13400
N486        N  0.03327760  0.79397755  0.46590944    -0.82300
H487        H  0.10676109  0.75969627  0.49968308     0.18200
N488        N  0.08642475  0.73340213  0.53805874    -0.80900
H489        H  0.01382437  0.79380942  0.46976966     0.33900
H490        H  0.03559331  0.78516816  0.44826870     0.38400
H491        H  0.10588343  0.73338494  0.53422072     0.33800
H492        H  0.08415192  0.74184494  0.55587903     0.30500
H493        H  0.00366191  0.78632853  0.57146453     0.33800
H494        H  0.03389979  0.78591656  0.56158210     0.30500
H495        H  0.00194719  0.66434061  0.55903102     0.38400
H496        H  0.03209451  0.66401572  0.54886286     0.33900
C497        C  0.00246296  0.65443482  0.65350622    -0.19900
C498        C  0.99516646  0.62867575  0.65446107     0.36300
C499        C  0.00804438  0.61215775  0.67080643    -0.25900
C500        C  0.02819124  0.62089209  0.68575972     0.02800
C501        C  0.03542782  0.64659221  0.68490722     0.27600
C502        C  0.02251200  0.66318173  0.66861491    -0.25000
N503        N  0.97515579  0.61934647  0.63839167    -0.82400
H504        H  0.00290118  0.59225230  0.67138000     0.13400
C505        C  0.04272025  0.60241644  0.70078924     0.02700
N506        N  0.05589207  0.65559798  0.70053652    -0.80900
H507        H  0.02795026  0.68299099  0.66775403     0.18200
C508        C  0.06762439  0.59697908  0.69351716    -0.25800
C509        C  0.08181356  0.57842329  0.70618187     0.36200
C510        C  0.07047439  0.56459894  0.72628428    -0.19800
C511        C  0.04561904  0.57070736  0.73390053    -0.25100
C512        C  0.03166312  0.58957891  0.72137489     0.27600
H513        H  0.07591071  0.60714764  0.67767132     0.13400
N514        N  0.10757684  0.57364943  0.69859113    -0.82300
H515        H  0.03683754  0.56048751  0.74941837     0.18200
N516        N  0.00627259  0.59565563  0.72926195    -0.80900
H517        H  0.11253946  0.58489322  0.68296640     0.33900
H518        H  0.11930847  0.57933627  0.71351633     0.38400
H519        H  0.00088970  0.58441587  0.74469641     0.33800
H520        H  0.00633275  0.61443190  0.73568655     0.30500
H521        H  0.05888857  0.67497987  0.69758317     0.33800
H522        H  0.05032536  0.65353464  0.71947746     0.30500
H523        H  0.98117702  0.62120780  0.61956959     0.38400
H524        H  0.97214345  0.59998606  0.64148700     0.33900
C525        C  0.00208605  0.35906110  0.64817093    -0.19900
C526        C  0.00325824  0.35843222  0.67488181     0.36300
C527        C  0.01539378  0.37819643  0.68786745    -0.25900
C528        C  0.02609178  0.39864011  0.67464531     0.02800
C529        C  0.02462217  0.39942274  0.64788869     0.27600
C530        C  0.01278932  0.37939968  0.63484249    -0.25000
N531        N  0.99223800  0.33759531  0.68862465    -0.82400
H532        H  0.01685998  0.37750954  0.70837774     0.13400
C533        C  0.03973411  0.41845656  0.68913469     0.02700
N534        N  0.03497623  0.42061041  0.63419023    -0.80900
H535        H  0.01151743  0.37980235  0.61431124     0.18200
C536        C  0.06543754  0.42267807  0.68398614    -0.25800
C537        C  0.07965368  0.44007249  0.69826629     0.36200
C538        C  0.06771023  0.45388187  0.71800894    -0.19800
C539        C  0.04185651  0.44962155  0.72304117    -0.25100
C540        C  0.02774630  0.43206780  0.70879010     0.27600
H541        H  0.07463118  0.41176078  0.66917439     0.13400
N542        N  0.10625891  0.44320337  0.69310443    -0.82300
H543        H  0.03253123  0.46012769  0.73805369     0.18200
N544        N  0.00131216  0.42798555  0.71415165    -0.80900
H545        H  0.11178800  0.43213039  0.67758899     0.33900
H546        H  0.11623084  0.43626004  0.70879984     0.38400
H547        H  0.99540313  0.43937251  0.72929239     0.33800
H548        H  0.99098416  0.43380725  0.69823803     0.30500
H549        H  0.03231329  0.41825453  0.61465820     0.33800
H550        H  0.02468558  0.43673789  0.63943378     0.30500
H551        H  0.00226085  0.32119009  0.68373151     0.38400
H552        H  0.99458751  0.34009147  0.70817674     0.33900
C553        C  0.23197683  0.36425418  0.00016938    -0.19900
C554        C  0.20531402  0.36362066  0.99816063     0.36300
C555        C  0.19077414  0.38094458  0.01213369    -0.25900
C556        C  0.20236182  0.39900354  0.02786408     0.02800
C557        C  0.22906470  0.39999622  0.02951866     0.27600
C558        C  0.24365622  0.38231449  0.01586645    -0.25000
N559        N  0.19313955  0.34510309  0.98222315    -0.82400
H560        H  0.17025775  0.38014551  0.01107327     0.13400
C561        C  0.18610115  0.41634455  0.04282683     0.02700
N562        N  0.24116395  0.41906933  0.04483517    -0.80900
H563        H  0.26416702  0.38277983  0.01717072     0.18200
C564        C  0.18785198  0.41621230  0.06939681    -0.25800
C565        C  0.17206787  0.43169614  0.08429000     0.36200
C566        C  0.15433961  0.44780761  0.07221985    -0.19800
C567        C  0.15235740  0.44750571  0.04562716    -0.25100
C568        C  0.16817163  0.43210894  0.03080547     0.27600
H569        H  0.20132276  0.40364658  0.07852789     0.13400
N570        N  0.17375078  0.43079701  0.11152199    -0.82300
H571        H  0.13887223  0.45987344  0.03625876     0.18200
N572        N  0.16636421  0.43265293  0.00357016    -0.80900
H573        H  0.18792609  0.41816047  0.11725666     0.33900
H574        H  0.15660031  0.42350831  0.11832485     0.38400
H575        H  0.15208749  0.44513481  0.99773146     0.33800
H576        H  0.18344949  0.43988830  0.99657893     0.30500
H577        H  0.26088558  0.41721786  0.04395560     0.33800
H578        H  0.23676967  0.43674197  0.03695075     0.30500
H579        H  0.19700185  0.32718538  0.98980709     0.38400
H580        H  0.17343929  0.34734424  0.98268348     0.33900
C581        C  0.22095667  0.35822256  0.86442679    -0.19900
C582        C  0.22265734  0.38456135  0.86905315     0.36300
C583        C  0.20637281  0.40116368  0.85608972    -0.25900
C584        C  0.18856750  0.39195155  0.83858841     0.02800
C585        C  0.18672537  0.36564951  0.83409596     0.27600
C586        C  0.20312851  0.34901287  0.84693795    -0.25000
N587        N  0.24122803  0.39433080  0.88652131    -0.82400
H588        H  0.20784398  0.42143035  0.85926359     0.13400
C589        C  0.17254157  0.41024686  0.82456003     0.02700
N590        N  0.16810899  0.35600940  0.81663628    -0.80900
H591        H  0.20188234  0.32877668  0.84351975     0.18200
C592        C  0.17502483  0.41207047  0.79814172    -0.25800
C593        C  0.16156403  0.43043911  0.78429603     0.36200
C594        C  0.14501479  0.44716284  0.79727113    -0.19800
C595        C  0.14194060  0.44462393  0.82365161    -0.25100
C596        C  0.15562977  0.42642173  0.83743764     0.27600
H597        H  0.18806215  0.39951083  0.78838755     0.13400
N598        N  0.16440776  0.43177975  0.75717518    -0.82300
H599        H  0.12922949  0.45728969  0.83368567     0.18200
N600        N  0.15259534  0.42436762  0.86448183    -0.80900
H601        H  0.17508717  0.41643878  0.75052622     0.33900
H602        H  0.17511769  0.44796194  0.75311471     0.38400
H603        H  0.13953352  0.43775626  0.87108884     0.33800
H604        H  0.14485366  0.40650872  0.86829481     0.30500
H605        H  0.16922144  0.33624671  0.81548324     0.33800
H606        H  0.15020092  0.36026393  0.82405321     0.30500
H607        H  0.25916757  0.39031402  0.87907894     0.38400
H608        H  0.23991103  0.41408540  0.88781390     0.33900
C609        C  0.22823565  0.64609147  0.00871563    -0.19900
C610        C  0.23163681  0.61976396  0.00509843     0.36300
C611        C  0.21602741  0.60265190  0.01827802    -0.25900
C612        C  0.19744956  0.61141240  0.03515177     0.02800
C613        C  0.19433889  0.63762570  0.03915868     0.27600
C614        C  0.20986156  0.65476060  0.02593660    -0.25000
N615        N  0.25103890  0.61057471  0.98826740    -0.82400
H616        H  0.21841753  0.58240955  0.01556292     0.13400
C617        C  0.18155214  0.59282686  0.04877072     0.02700
N618        N  0.17531724  0.64665348  0.05649368    -0.80900
H619        H  0.20725837  0.67498127  0.02860883     0.18200
C620        C  0.18726489  0.58704068  0.07402003    -0.25800
C621        C  0.17331842  0.56869360  0.08740797     0.36200
C622        C  0.15281754  0.55611436  0.07521951    -0.19800
C623        C  0.14694977  0.56251220  0.04992777    -0.25100
C624        C  0.16112972  0.58072449  0.03661081     0.27600
H625        H  0.20303257  0.59659354  0.08314894     0.13400
N626        N  0.18000036  0.56301031  0.11325777    -0.82300
H627        H  0.13135656  0.55314452  0.04035320     0.18200
N628        N  0.15499902  0.58694451  0.01075437    -0.80900
H629        H  0.19397009  0.57548670  0.11982046     0.33900
H630        H  0.18830193  0.54499971  0.11338148     0.38400
H631        H  0.13951890  0.57623260  0.00448032     0.33800
H632        H  0.14927852  0.60593263  0.01035425     0.30500
H633        H  0.17556475  0.66646944  0.05738337     0.33800
H634        H  0.15760877  0.64152647  0.04915709     0.30500
H635        H  0.26856494  0.61607096  0.99578258     0.38400
H636        H  0.25102664  0.59074717  0.98776417     0.33900
C637        C  0.38255377  0.79273508  0.06810581    -0.19900
C638        C  0.36405611  0.77894134  0.08181033     0.36300
C639        C  0.34499577  0.76595188  0.06856957    -0.25900
C640        C  0.34378657  0.76660999  0.04202000     0.02800
C641        C  0.36137504  0.78138656  0.02832542     0.27600
C642        C  0.38053593  0.79446735  0.04155291    -0.25000
N643        N  0.36449888  0.77833485  0.10911042    -0.82400
H644        H  0.33107680  0.75496238  0.07897919     0.13400
C645        C  0.32490349  0.75032707  0.02904753     0.02700
N646        N  0.36008053  0.78252445  0.00108973    -0.80900
H647        H  0.39439268  0.80541292  0.03103352     0.18200
C648        C  0.30593947  0.76124001  0.01386273    -0.25800
C649        C  0.28736910  0.74602422  0.00212657     0.36200
C650        C  0.28797841  0.71947747  0.00568718    -0.19800
C651        C  0.30695369  0.70870404  0.02090533    -0.25100
C652        C  0.32551820  0.72380802  0.03246164     0.27600
H653        H  0.30547463  0.78165171  0.01146721     0.13400
N654        N  0.26780719  0.75736421  0.98687845    -0.82300
H655        H  0.30764743  0.68828720  0.02324706     0.18200
N656        N  0.34523100  0.71233361  0.04744781    -0.80900
H657        H  0.27008641  0.77705856  0.98616812     0.33900
H658        H  0.25046807  0.75395519  0.99588234     0.38400
H659        H  0.34291209  0.69264829  0.04818415     0.33800
H660        H  0.36247845  0.71568294  0.03823844     0.30500
H661        H  0.37432264  0.79433677  0.99393511     0.33800
H662        H  0.36375857  0.76432336  0.99411132     0.30500
H663        H  0.36106529  0.79678144  0.11556982     0.38400
H664        H  0.34975978  0.76707018  0.11614133     0.33900
C665        C  0.22221961  0.64739112  0.87104310    -0.19900
C666        C  0.23329803  0.62649660  0.85860449     0.36300
C667        C  0.21787178  0.60900568  0.84595714    -0.25900
C668        C  0.19149412  0.61208843  0.84546109     0.02800
C669        C  0.18025698  0.63288866  0.85801349     0.27600
C670        C  0.19579160  0.65029395  0.87098990    -0.25000
N671        N  0.26022541  0.62281243  0.85918451    -0.82400
H672        H  0.22650306  0.59293995  0.83644168     0.13400
C673        C  0.17603133  0.59365781  0.83109530     0.02700
N674        N  0.15323433  0.63639056  0.85715366    -0.80900
H675        H  0.18738933  0.66637063  0.88066982     0.18200
C676        C  0.15918305  0.57775220  0.84408486    -0.25800
C677        C  0.14450281  0.55971708  0.83099808     0.36200
C678        C  0.14713284  0.55740713  0.80432972    -0.19800
C679        C  0.16413323  0.57346528  0.79149107    -0.25100
C680        C  0.17843801  0.59168404  0.80457596     0.27600
H681        H  0.15758870  0.57939683  0.86453356     0.13400
N682        N  0.12759249  0.54338774  0.84482885    -0.82300
H683        H  0.16607930  0.57202775  0.77106425     0.18200
N684        N  0.19535893  0.60829717  0.79108324    -0.80900
H685        H  0.12975344  0.54607979  0.86440994     0.33900
H686        H  0.10909967  0.54905166  0.84058679     0.38400
H687        H  0.19499598  0.60436506  0.77163792     0.33800
H688        H  0.18857552  0.62682105  0.79325686     0.30500
H689        H  0.14802317  0.65262531  0.86730950     0.33800
H690        H  0.14821064  0.63966946  0.83823474     0.30500
H691        H  0.26679399  0.62236604  0.84046164     0.38400
H692        H  0.26387927  0.60513778  0.86740799     0.33900
C693        C  0.58979743  0.71885450  0.00777549    -0.19900
C694        C  0.56489936  0.72356560  0.99881802     0.36300
C695        C  0.54898282  0.73989048  0.01248191    -0.25900
C696        C  0.55703184  0.75101046  0.03521062     0.02800
C697        C  0.58172208  0.74642817  0.04429543     0.27600
C698        C  0.59794945  0.73040767  0.03042333    -0.25000
N699        N  0.55552341  0.71109742  0.97639156    -0.82400
H700        H  0.52981480  0.74332328  0.00585883     0.13400
C701        C  0.53853547  0.76621799  0.04973931     0.02700
N702        N  0.59007443  0.75793512  0.06758101    -0.80900
H703        H  0.61698815  0.72685588  0.03731140     0.18200
C704        C  0.52769643  0.75583931  0.07163577    -0.25800
C705        C  0.50719686  0.76778116  0.08382229     0.36200
C706        C  0.49764647  0.79097156  0.07400507    -0.19800
C707        C  0.50938233  0.80167100  0.05249762    -0.25100
C708        C  0.52966048  0.78950148  0.04028180     0.27600
H709        H  0.53458847  0.73775608  0.07858770     0.13400
N710        N  0.49592103  0.75609406  0.10574421    -0.82300
H711        H  0.50260779  0.81953507  0.04494206     0.18200
N712        N  0.54107954  0.80043290  0.01804672    -0.80900
H713        H  0.50607877  0.73992122  0.11110091     0.33900
H714        H  0.47786771  0.74978403  0.10045476     0.38400
H715        H  0.53227343  0.81757755  0.01338411     0.33800
H716        H  0.55992027  0.80476001  0.02252841     0.30500
H717        H  0.60870951  0.75253181  0.07170133     0.33800
H718        H  0.59033942  0.77757404  0.06479440     0.30500
H719        H  0.55478393  0.69164249  0.98019127     0.38400
H720        H  0.53695954  0.71680563  0.97235965     0.33900
C721        C  0.85743435  0.62962644  0.23526903    -0.19900
C722        C  0.83641612  0.63843733  0.22114952     0.36300
C723        C  0.82269212  0.62154936  0.20597985    -0.25900
C724        C  0.82976462  0.59604434  0.20435413     0.02800
C725        C  0.85054833  0.58699575  0.21857554     0.27600
C726        C  0.86427948  0.60394283  0.23389814    -0.25000
N727        N  0.82952160  0.66473404  0.22141171    -0.82400
H728        H  0.80687061  0.62853029  0.19483979     0.13400
C729        C  0.81603163  0.57925677  0.18668597     0.02700
N730        N  0.85759135  0.56067798  0.21726718    -0.80900
H731        H  0.88028572  0.59712210  0.24485154     0.18200
C732        C  0.82919972  0.56894723  0.16608182    -0.25800
C733        C  0.81740157  0.55197092  0.14934420     0.36200
C734        C  0.79155947  0.54555625  0.15313382    -0.19800
C735        C  0.77821501  0.55674491  0.17339312    -0.25100
C736        C  0.79024006  0.57345415  0.19028129     0.27600
H737        H  0.84898799  0.57384436  0.16337782     0.13400
N738        N  0.83183631  0.54090593  0.12899566    -0.82300
H739        H  0.75840439  0.55215939  0.17635733     0.18200
N740        N  0.77653312  0.58425064  0.21126412    -0.80900
H741        H  0.85009440  0.54863111  0.12830275     0.33900
H742        H  0.83412713  0.52164069  0.13313841     0.38400
H743        H  0.75766089  0.57814506  0.21114372     0.33800
H744        H  0.78465102  0.57729312  0.22798388     0.30500
H745        H  0.87335351  0.55711147  0.22877510     0.33800
H746        H  0.84257953  0.55007568  0.22473364     0.30500
H747        H  0.81073006  0.66612256  0.22760845     0.38400
H748        H  0.83038128  0.67156457  0.20280151     0.33900
C749        C  0.86966913  0.35614716  0.22932160    -0.19900
C750        C  0.85565648  0.34682700  0.20850459     0.36300
C751        C  0.84283995  0.36398214  0.19267000    -0.25900
C752        C  0.84394358  0.39015087  0.19724841     0.02800
C753        C  0.85841683  0.39952028  0.21771967     0.27600
C754        C  0.87118438  0.38236483  0.23360391    -0.25000
N755        N  0.85463504  0.32002720  0.20351085    -0.82400
H756        H  0.83164514  0.35695913  0.17690019     0.13400
C757        C  0.82847760  0.40734805  0.18140868     0.02700
N758        N  0.85998001  0.42636990  0.22226255    -0.80900
H759        H  0.88224678  0.38938916  0.24946810     0.18200
C760        C  0.80775429  0.41960893  0.19253477    -0.25800
C761        C  0.79157856  0.43509647  0.17813919     0.36200
C762        C  0.79676968  0.43900350  0.15200340    -0.19800
C763        C  0.81771124  0.42662966  0.14097605    -0.25100
C764        C  0.83350104  0.41069135  0.15538826     0.27600
H765        H  0.80390513  0.41661336  0.21252454     0.13400
N766        N  0.77021569  0.44703710  0.19019197    -0.82300
H767        H  0.82182026  0.42938717  0.12101728     0.18200
N768        N  0.85464617  0.39795634  0.14379108    -0.80900
H769        H  0.77038166  0.44367637  0.20975415     0.33900
H770        H  0.75385836  0.43818413  0.18327846     0.38400
H771        H  0.85562601  0.40225887  0.12443864     0.33800
H772        H  0.87120921  0.40508304  0.15206976     0.30500
H773        H  0.87125823  0.43010438  0.23816761     0.33800
H774        H  0.86920369  0.43453070  0.20670807     0.30500
H775        H  0.84346251  0.31632958  0.18752894     0.38400
H776        H  0.87301862  0.31404755  0.19905933     0.33900
C777        C  0.71677078  0.54617561  0.07069401    -0.19900
C778        C  0.72791396  0.56109718  0.05126826     0.36300
C779        C  0.71338751  0.58000997  0.03934483    -0.25900
C780        C  0.68821658  0.58443448  0.04651046     0.02800
C781        C  0.67705302  0.56977696  0.06576317     0.27600
C782        C  0.69138485  0.55077021  0.07761497    -0.25000
N783        N  0.75387123  0.55728981  0.04381028    -0.82400
H784        H  0.72172905  0.59150443  0.02447119     0.13400
C785        C  0.67365930  0.60457278  0.03369011     0.02700
N786        N  0.65121242  0.57435305  0.07320406    -0.80900
H787        H  0.68259082  0.53952623  0.09239804     0.18200
C788        C  0.65447894  0.59774687  0.01660256    -0.25800
C789        C  0.64027380  0.61635737  0.00394323     0.36200
C790        C  0.64557625  0.64221427  0.00846219    -0.19800
C791        C  0.66446154  0.64899087  0.02598850    -0.25100
C792        C  0.67861823  0.63034422  0.03867755     0.27600
H793        H  0.65067750  0.57783605  0.01313571     0.13400
N794        N  0.62043481  0.60916739  0.98663870    -0.82300
H795        H  0.66842693  0.66887716  0.02941629     0.18200
N796        N  0.69805932  0.63737208  0.05649370    -0.80900
H797        H  0.61906130  0.58942292  0.98538778     0.33900
H798        H  0.60326724  0.61560895  0.99421401     0.38400
H799        H  0.69942215  0.65711395  0.05787806     0.33800
H800        H  0.69248947  0.63081775  0.07437784     0.30500
H801        H  0.64574510  0.56179572  0.08755248     0.29000
H802        H  0.65034489  0.59257983  0.08100569     0.30500
H803        H  0.76531157  0.56287463  0.05903743     0.38400
H804        H  0.75862901  0.56913526  0.02861635     0.33900
C805        C  0.65260920  0.34414555  0.99568153    -0.19900
C806        C  0.66587219  0.33613564  0.01754830     0.36300
C807        C  0.68025577  0.35388647  0.03131153    -0.25900
C808        C  0.68161328  0.37925072  0.02346486     0.02800
C809        C  0.66885821  0.38714936  0.00139902     0.27600
C810        C  0.65462473  0.36945573  0.98759232    -0.25000
N811        N  0.66454630  0.31014867  0.02570625    -0.82400
H812        H  0.69021681  0.34807133  0.04834349     0.13400
C813        C  0.69545871  0.39779323  0.03913270     0.02700
N814        N  0.66991913  0.41324962  0.99353006    -0.80900
H815        H  0.64418511  0.37568084  0.97099698     0.18200
C816        C  0.71904266  0.40668359  0.03091072    -0.25800
C817        C  0.73239159  0.42504016  0.04489233     0.36200
C818        C  0.72157724  0.43491906  0.06751682    -0.19800
C819        C  0.69780535  0.42576095  0.07555550    -0.25100
C820        C  0.68461290  0.40740058  0.06151350     0.27600
H821        H  0.72703977  0.39919352  0.01349779     0.13400
N822        N  0.75671105  0.43362788  0.03601185    -0.82300
H823        H  0.68921775  0.43317209  0.09269837     0.18200
N824        N  0.66008482  0.39866526  0.06965843    -0.80900
H825        H  0.76111360  0.42541426  0.01848504     0.33900
H826        H  0.77036076  0.42704044  0.04881831     0.38400
H827        H  0.65478467  0.40754749  0.08659230     0.33800
H828        H  0.64685499  0.40424698  0.05595438     0.30500
H829        H  0.65954456  0.41592039  0.97682460     0.33800
H830        H  0.66099322  0.42411896  0.00753520     0.30500
H831        H  0.67285614  0.29899371  0.01156045     0.38400
H832        H  0.67529277  0.30745643  0.04217797     0.33900
C833        C  0.07498274  0.21281318  0.49892106    -0.19900
C834        C  0.08590909  0.23374230  0.51192069     0.36300
C835        C  0.07164910  0.24673917  0.53034221    -0.25900
C836        C  0.04705612  0.23898596  0.53680186     0.02800
C837        C  0.03640360  0.21770182  0.52452931     0.27600
C838        C  0.05036444  0.20499057  0.50565966    -0.25000
N839        N  0.11136588  0.24189354  0.50646267    -0.82400
H840        H  0.07972382  0.26321720  0.53963121     0.13400
C841        C  0.03235918  0.25397785  0.55571146     0.02700
N842        N  0.01140328  0.20911297  0.53125654    -0.80900
H843        H  0.04181626  0.18894321  0.49606960     0.18200
C844        C  0.00857338  0.26369950  0.54877434    -0.25800
C845        C  0.99441458  0.27880407  0.56553534     0.36200
C846        C  0.00423505  0.28431060  0.58989928    -0.19800
C847        C  0.02805032  0.27461671  0.59686262    -0.25100
C848        C  0.04217121  0.25941158  0.58008136     0.27600
H849        H  0.00128825  0.25998122  0.52989769     0.13400
N850        N  0.97042383  0.28912751  0.55762661    -0.82300
H851        H  0.03556745  0.27879844  0.61555250     0.18200
N852        N  0.06637180  0.24940549  0.58770058    -0.80900
H853        H  0.96585571  0.28309332  0.53926925     0.33900
H854        H  0.97232309  0.30885207  0.55683982     0.38400
H855        H  0.07092895  0.25532843  0.60610050     0.33800
H856        H  0.06477036  0.22965074  0.58829592     0.30500
H857        H  0.00623258  0.19334740  0.52037202     0.33800
H858        H  0.01202084  0.20306598  0.55014935     0.30500
H859        H  0.12362405  0.22758254  0.51265410     0.38400
H860        H  0.11601040  0.25809434  0.51695557     0.33900
C861        C  0.00785599  0.29483690  0.29841223    -0.19900
C862        C  0.02276797  0.27419694  0.29018505     0.36300
C863        C  0.03589980  0.25960268  0.30817630    -0.25900
C864        C  0.03397740  0.26501565  0.33416344     0.02800
C865        C  0.01861866  0.28530607  0.34243425     0.27600
C866        C  0.00573599  0.30011708  0.32441328    -0.25000
N867        N  0.02413907  0.26794366  0.26364281    -0.82400
H868        H  0.04760385  0.24387543  0.30197995     0.13400
C869        C  0.04808531  0.24921029  0.35257693     0.02700
N870        N  0.01602024  0.29056811  0.36909051    -0.80900
H871        H  0.99396287  0.31579418  0.33060519     0.18200
C872        C  0.06672458  0.26053932  0.36777210    -0.25800
C873        C  0.08015732  0.24639042  0.38592128     0.36200
C874        C  0.07513235  0.22012865  0.38852198    -0.19800
C875        C  0.05644911  0.20886530  0.37312202    -0.25100
C876        C  0.04280904  0.22316226  0.35525927     0.27600
H877        H  0.07059545  0.28061593  0.36559256     0.13400
N878        N  0.09846648  0.25875774  0.40194643    -0.82300
H879        H  0.05243439  0.18879438  0.37499304     0.18200
N880        N  0.02346594  0.21143225  0.33998593    -0.80900
H881        H  0.10019313  0.27793165  0.39715116     0.33900
H882        H  0.09147520  0.25823621  0.42051317     0.38400
H883        H  0.02198270  0.19211059  0.34421415     0.33800
H884        H  0.00611034  0.21966735  0.34492838     0.30500
H885        H  0.00407790  0.30613137  0.37198918     0.33800
H886        H  0.00710040  0.27493618  0.37744219     0.30500
H887        H  0.00595695  0.26253577  0.25779257     0.38400
H888        H  0.03589201  0.25223637  0.26077460     0.33900
C889        C  0.48552430  0.21721427  0.79006254    -0.19900
C890        C  0.49073718  0.21118457  0.81575867     0.36300
C891        C  0.50993659  0.22438067  0.82867425    -0.25900
C892        C  0.52329915  0.24412213  0.81693264     0.02800
C893        C  0.51767150  0.25070618  0.79163834     0.27600
C894        C  0.49910345  0.23697955  0.77836587    -0.25000
N895        N  0.47629356  0.19211136  0.82887349    -0.82400
H896        H  0.51425338  0.21955908  0.84820350     0.13400
C897        C  0.54252406  0.25837204  0.83166167     0.02700
N898        N  0.53057801  0.27155926  0.77968696    -0.80900
H899        H  0.49514493  0.24190435  0.75879860     0.18200
C900        C  0.56760599  0.25955997  0.82279152    -0.25800
C901        C  0.58611819  0.27358415  0.83589888     0.36200
C902        C  0.57926337  0.28668094  0.85822115    -0.19800
C903        C  0.55430993  0.28499184  0.86734267    -0.25100
C904        C  0.53582376  0.27107764  0.85424055     0.27600
H905        H  0.57270545  0.24946056  0.80561123     0.13400
N906        N  0.61181207  0.27441095  0.82680845    -0.82300
H907        H  0.54908011  0.29515828  0.88444871     0.18200
N908        N  0.51016820  0.27019914  0.86347616    -0.80900
H909        H  0.62327456  0.26567728  0.84043879     0.33900
H910        H  0.61365612  0.26378547  0.81013656     0.38400
H911        H  0.50845771  0.28041520  0.88041032     0.33800
H912        H  0.49866176  0.27931307  0.85012834     0.30500
H913        H  0.52426974  0.27392699  0.76102195     0.33800
H914        H  0.52561978  0.28808861  0.78949375     0.30500
H915        H  0.45768851  0.19880034  0.83045628     0.38400
H916        H  0.48295449  0.18973673  0.84742748     0.33900
C917        C  0.37586086  0.21977447  0.78643185    -0.19900
C918        C  0.36259371  0.20983442  0.80764504     0.36300
C919        C  0.34536918  0.22533614  0.82086731    -0.25900
C920        C  0.34079766  0.25038740  0.81333472     0.02800
C921        C  0.35336746  0.26020714  0.79190943     0.27600
C922        C  0.37078915  0.24485984  0.77871540    -0.25000
N923        N  0.36655027  0.18410779  0.81580102    -0.82400
H924        H  0.33549504  0.21790466  0.83730568     0.13400
C925        C  0.32306033  0.26614811  0.82848223     0.02700
N926        N  0.34839676  0.28573540  0.78370627    -0.80900
H927        H  0.38066119  0.25270634  0.76248720     0.18200
C928        C  0.33258685  0.28655881  0.84268224    -0.25800
C929        C  0.31658921  0.30102819  0.85841459     0.36200
C930        C  0.29059963  0.29482924  0.85995786    -0.19800
C931        C  0.28097111  0.27478449  0.84527258    -0.25100
C932        C  0.29696257  0.26040717  0.82946569     0.27600
H933        H  0.35262689  0.29102018  0.84164639     0.13400
N934        N  0.32642445  0.32251232  0.87206896    -0.82300
H935        H  0.26088860  0.27045550  0.84610209     0.18200
N936        N  0.28685598  0.24014150  0.81424194    -0.80900
H937        H  0.34556738  0.32533652  0.86769490     0.33900
H938        H  0.32574607  0.31826181  0.89141616     0.38400
H939        H  0.26731704  0.23837221  0.81711017     0.33800
H940        H  0.28935100  0.24513537  0.79518725     0.30500
H941        H  0.35924879  0.29014773  0.76769357     0.33800
H942        H  0.32939413  0.28662254  0.77807716     0.30500
H943        H  0.35949885  0.17221020  0.80155840     0.38400
H944        H  0.35598390  0.18017884  0.83212813     0.33900
C945        C  0.14903147  0.13144045  0.49388386    -0.19900
C946        C  0.16585109  0.14220695  0.51180538     0.36300
C947        C  0.17870361  0.12631264  0.52877712    -0.25900
C948        C  0.17516275  0.09997937  0.52829029     0.02800
C949        C  0.15779182  0.08919799  0.51108117     0.27600
C950        C  0.14474079  0.10509255  0.49412202    -0.25000
N951        N  0.16974056  0.16919303  0.51287279    -0.82400
H952        H  0.19179105  0.13445740  0.54241022     0.13400
C953        C  0.19084702  0.08414352  0.54526763     0.02700
N954        N  0.15393254  0.06219750  0.51052743    -0.80900
H955        H  0.13174237  0.09676831  0.48052956     0.18200
C956        C  0.17926485  0.06886447  0.56376965    -0.25800
C957        C  0.19400838  0.05524918  0.58135380     0.36200
C958        C  0.22064640  0.05707475  0.58014504    -0.19800
C959        C  0.23211398  0.07195321  0.56134751    -0.25100
C960        C  0.21750744  0.08536350  0.54376685     0.27600
H961        H  0.15875395  0.06811273  0.56485796     0.13400
N962        N  0.18214639  0.04006849  0.60065405    -0.82300
H963        H  0.25263177  0.07290445  0.56028817     0.18200
N964        N  0.22958486  0.10027552  0.52436355    -0.80900
H965        H  0.16241424  0.04077934  0.59888556     0.33900
H966        H  0.18659665  0.04815009  0.61824468     0.38400
H967        H  0.24932486  0.09933773  0.52606200     0.33800
H968        H  0.22498077  0.09217237  0.50683404     0.30500
H969        H  0.14042930  0.05735572  0.49680793     0.33800
H970        H  0.17099235  0.05378882  0.50490595     0.30500
H971        H  0.15260345  0.17748317  0.51843300     0.38400
H972        H  0.18305052  0.17385559  0.52684897     0.33900
C973        C  0.29367977  0.05954101  0.63902333    -0.19900
C974        C  0.29850124  0.05522914  0.66501694     0.36300
C975        C  0.31560092  0.07108632  0.67794813    -0.25900
C976        C  0.32732567  0.09161342  0.66563918     0.02800
C977        C  0.32245518  0.09589554  0.63963473     0.27600
C978        C  0.30595866  0.07960922  0.62655739    -0.25000
N979        N  0.28557988  0.03520963  0.67829999    -0.82400
H980        H  0.31961444  0.06760086  0.69781779     0.13400
C981        C  0.34482818  0.10830185  0.68013844     0.02700
N982        N  0.33389558  0.11703578  0.62673051    -0.80900
H983        H  0.30224558  0.08286315  0.60658410     0.18200
C984        C  0.36942110  0.11255359  0.67080176    -0.25800
C985        C  0.38661509  0.12802979  0.68398816     0.36200
C986        C  0.37917536  0.13898902  0.70719492    -0.19800
C987        C  0.35481480  0.13460093  0.71677274    -0.25100
C988        C  0.33733009  0.11972808  0.70323646     0.27600
H989        H  0.37532614  0.10347341  0.65331856     0.13400
N990        N  0.41173173  0.13225275  0.67420770    -0.82300
H991        H  0.34935806  0.14310513  0.73469913     0.18200
N992        N  0.31198102  0.11635937  0.71271616    -0.80900
H993        H  0.41412590  0.12289066  0.65686690     0.33900
H994        H  0.42460185  0.12406833  0.68688146     0.38400
H995        H  0.30963314  0.12591759  0.72996333     0.33800
H996        H  0.29957615  0.12484126  0.69977056     0.30500
H997        H  0.32848756  0.11737322  0.60763209     0.33800
H998        H  0.32680829  0.13363599  0.63496130     0.30500
H999        H  0.26622172  0.03954345  0.67833308     0.38400
H1000       H  0.29127428  0.03461743  0.69730488     0.33900
C1001       C  0.23087320  0.91942030  0.57325746    -0.19900
C1002       C  0.21525069  0.89906696  0.58114757     0.36300
C1003       C  0.20124327  0.88549494  0.56297272    -0.25900
C1004       C  0.20204734  0.89227441  0.53728371     0.02800
C1005       C  0.21740398  0.91265492  0.52937658     0.27600
C1006       C  0.23172806  0.92601493  0.54744871    -0.25000
N1007       N  0.21317744  0.89268396  0.60760936    -0.82400
H1008       H  0.18916062  0.86994302  0.56888275     0.13400
C1009       C  0.18615725  0.87829262  0.51887461     0.02700
N1010       N  0.21836358  0.91961832  0.50301040    -0.80900
H1011       H  0.24376695  0.94152287  0.54136340     0.18200
C1012       C  0.16594336  0.89086559  0.50711524    -0.25800
C1013       C  0.15040249  0.87841976  0.48937161     0.36200
C1014       C  0.15547956  0.85274754  0.48305516    -0.19800
C1015       C  0.17576203  0.84024825  0.49516158    -0.25100
C1016       C  0.19114564  0.85276596  0.51295021     0.27600
H1017       H  0.16223271  0.91050672  0.51195742     0.13400
N1018       N  0.12990079  0.89200415  0.47756832    -0.82300
H1019       H  0.17984203  0.82062592  0.49061503     0.18200
N1020       N  0.21202170  0.83979894  0.52479269    -0.80900
H1021       H  0.13009509  0.91109359  0.48299226     0.33900
H1022       H  0.11297414  0.88447924  0.48464494     0.38400
H1023       H  0.21308783  0.82103580  0.51843217     0.33800
H1024       H  0.22873451  0.84872725  0.51892292     0.30500
H1025       H  0.23042515  0.93513647  0.50034451     0.33800
H1026       H  0.22634777  0.90442004  0.49306186     0.30500
H1027       H  0.20486249  0.90813018  0.61688547     0.38400
H1028       H  0.20095473  0.87727257  0.61015783     0.33900
C1029       C  0.48595250  0.13778023  0.71058614    -0.19900
C1030       C  0.48645018  0.11096217  0.71163406     0.36300
C1031       C  0.50498269  0.09767336  0.69786042    -0.25900
C1032       C  0.52294483  0.11053261  0.68306846     0.02800
C1033       C  0.52246963  0.13723490  0.68191413     0.27600
C1034       C  0.50383640  0.15057936  0.69551061    -0.25000
N1035       N  0.46795662  0.09726237  0.72628440    -0.82400
H1036       H  0.50530633  0.07712124  0.69842308     0.13400
C1037       C  0.54219141  0.09571589  0.66893821     0.02700
N1038       N  0.54110763  0.15065572  0.66719601    -0.80900
H1039       H  0.50356293  0.17111736  0.69468334     0.18200
C1040       C  0.54325324  0.09758083  0.64237785    -0.25800
C1041       C  0.56117529  0.08367358  0.62838569     0.36200
C1042       C  0.57836270  0.06777912  0.64131596    -0.19800
C1043       C  0.57709614  0.06567697  0.66781353    -0.25100
C1044       C  0.55925481  0.07961594  0.68180685     0.27600
H1045       H  0.52987361  0.10972932  0.63257385     0.13400
N1046       N  0.56182242  0.08533480  0.60115194    -0.82300
H1047       H  0.59040949  0.05344433  0.67761212     0.18200
N1048       N  0.55855184  0.07774933  0.70902912    -0.80900
H1049       H  0.54789076  0.09784493  0.59460410     0.33900
H1050       H  0.55721817  0.06743572  0.59392521     0.38400
H1051       H  0.57229853  0.06500513  0.71551818     0.33800
H1052       H  0.56335918  0.09553052  0.71640749     0.30500
H1053       H  0.53809604  0.17023040  0.66828765     0.33800
H1054       H  0.55884579  0.14718484  0.67538114     0.30500
H1055       H  0.45021656  0.10037085  0.71799056     0.38400
H1056       H  0.47127091  0.07772597  0.72527345     0.33900
C1057       C  0.87077114  0.28695248  0.29395598    -0.19900
C1058       C  0.85310171  0.26881028  0.28531540     0.36300
C1059       C  0.83996574  0.25392601  0.30311606    -0.25900
C1060       C  0.84448339  0.25679835  0.32917377     0.02800
C1061       C  0.86237632  0.27463402  0.33781193     0.27600
C1062       C  0.87547000  0.28949966  0.32006371    -0.25000
N1063       N  0.84881354  0.26545865  0.25857747    -0.82400
H1064       H  0.82624764  0.23999726  0.29673296     0.13400
C1065       C  0.83024027  0.24115630  0.34741838     0.02700
N1066       N  0.86703186  0.27758622  0.36455410    -0.80900
H1067       H  0.88905726  0.30349501  0.32659391     0.18200
C1068       C  0.84178201  0.21962673  0.35773182    -0.25800
C1069       C  0.82922408  0.20471055  0.37589023     0.36200
C1070       C  0.80481277  0.21213816  0.38448421    -0.19800
C1071       C  0.79324421  0.23361957  0.37359091    -0.25100
C1072       C  0.80568281  0.24810963  0.35506401     0.27600
H1073       H  0.86065891  0.21442706  0.35145849     0.13400
N1074       N  0.84134223  0.18227913  0.38559163    -0.82300
H1075       H  0.77445040  0.23931753  0.37962802     0.18200
N1076       N  0.79357420  0.26992262  0.34403039    -0.80900
H1077       H  0.85968304  0.18047317  0.37827252     0.33900
H1078       H  0.83116318  0.16666004  0.37877206     0.38400
H1079       H  0.77534230  0.27228631  0.35146965     0.33800
H1080       H  0.80398734  0.28594662  0.34936450     0.30500
H1081       H  0.88093053  0.29138115  0.36772695     0.33800
H1082       H  0.85034569  0.28436955  0.37286587     0.30500
H1083       H  0.86576221  0.25897064  0.25056178     0.38400
H1084       H  0.83527593  0.25130627  0.25542367     0.33900
C1085       C  0.80306543  0.21303590  0.49667022    -0.19900
C1086       C  0.78941468  0.22767444  0.51453063     0.36300
C1087       C  0.80271804  0.24139141  0.53305120    -0.25900
C1088       C  0.82926923  0.24078268  0.53410806     0.02800
C1089       C  0.84291356  0.22587325  0.51656499     0.27600
C1090       C  0.82962672  0.21194449  0.49815190    -0.25000
N1091       N  0.76213887  0.22825074  0.51409492    -0.82400
H1092       H  0.79234089  0.25247894  0.54692277     0.13400
C1093       C  0.84242279  0.25572527  0.55390773     0.02700
N1094       N  0.87017509  0.22527382  0.51728981    -0.80900
H1095       H  0.84009505  0.20070438  0.48447913     0.18200
C1096       C  0.85848056  0.24325744  0.57107788    -0.25800
C1097       C  0.87104301  0.25674265  0.59027833     0.36200
C1098       C  0.86730909  0.28314867  0.59232252    -0.19800
C1099       C  0.85097736  0.29558058  0.57542346    -0.25100
C1100       C  0.83864501  0.28215029  0.55602478     0.27600
H1101       H  0.86102561  0.22290985  0.56958853     0.13400
N1102       N  0.88745008  0.24378783  0.60781495    -0.82300
H1103       H  0.84840614  0.31592184  0.57698483     0.18200
N1104       N  0.82262589  0.29523687  0.53823099    -0.80900
H1105       H  0.88824397  0.22441374  0.60360980     0.33900
H1106       H  0.87939931  0.24537889  0.62588181     0.38400
H1107       H  0.82180286  0.31459053  0.54250197     0.33800
H1108       H  0.83103413  0.29370522  0.52031723     0.30500
H1109       H  0.87727838  0.21329129  0.50315052     0.33800
H1110       H  0.87669633  0.24352516  0.51308284     0.30500
H1111       H  0.75569141  0.20996820  0.51832656     0.38400
H1112       H  0.75514079  0.24015437  0.52834740     0.33900
C1113       C  0.72743734  0.13472309  0.49601182    -0.19900
C1114       C  0.70943812  0.14664631  0.51201162     0.36300
C1115       C  0.69690142  0.13221826  0.53051500    -0.25900
C1116       C  0.70177410  0.10625981  0.53325334     0.02800
C1117       C  0.72005513  0.09442994  0.51781939     0.27600
C1118       C  0.73273616  0.10878542  0.49936863    -0.25000
N1119       N  0.70411064  0.17330872  0.50977420    -0.82400
H1120       H  0.68268517  0.14109431  0.54243473     0.13400
C1121       C  0.68627100  0.09147014  0.55124921     0.02700
N1122       N  0.72551365  0.06788137  0.52090201    -0.80900
H1123       H  0.74658948  0.09953902  0.48731895     0.18200
C1124       C  0.67042618  0.07237445  0.54169754    -0.25800
C1125       C  0.65380157  0.05924570  0.55772868     0.36200
C1126       C  0.65320598  0.06535095  0.58379534    -0.19800
C1127       C  0.66922962  0.08426279  0.59342703    -0.25100
C1128       C  0.68598629  0.09730083  0.57736432     0.27600
H1129       H  0.67055767  0.06823136  0.52153981     0.13400
N1130       N  0.63709826  0.04017045  0.54761100    -0.82300
H1131       H  0.66869814  0.08872600  0.61350505     0.18200
N1132       N  0.70267915  0.11642854  0.58734571    -0.80900
H1133       H  0.61849513  0.04667176  0.54984866     0.33900
H1134       H  0.64001663  0.03792449  0.52810339     0.38400
H1135       H  0.70007219  0.11843551  0.60692083     0.33800
H1136       H  0.72128607  0.11008121  0.58471882     0.30500
H1137       H  0.73937701  0.06204782  0.50796550     0.33800
H1138       H  0.73323089  0.06542287  0.53902390     0.30500
H1139       H  0.69352216  0.17585833  0.49319288     0.38400
H1140       H  0.69245654  0.17937941  0.52464794     0.33900
C1141       C  0.65242439  0.07325510  0.29143892    -0.19900
C1142       C  0.64193890  0.08846635  0.31083292     0.36300
C1143       C  0.65811534  0.10065249  0.32807343    -0.25900
C1144       C  0.68446682  0.09751561  0.32664436     0.02800
C1145       C  0.69498561  0.08184697  0.30768121     0.27600
C1146       C  0.67879655  0.06978813  0.29021707    -0.25000
N1147       N  0.61488229  0.09100182  0.31324912    -0.82400
H1148       H  0.65015656  0.11234620  0.34301123     0.13400
C1149       C  0.70057074  0.11056679  0.34556477     0.02700
N1150       N  0.72199365  0.07842039  0.30619233    -0.80900
H1151       H  0.68672502  0.05785988  0.27545859     0.18200
C1152       C  0.71483329  0.09615489  0.36279227    -0.25800
C1153       C  0.72857594  0.10790188  0.38242039     0.36200
C1154       C  0.72816263  0.13462220  0.38455019    -0.19800
C1155       C  0.71414264  0.14896306  0.36700724    -0.25100
C1156       C  0.70044706  0.13721782  0.34746150     0.27600
H1157       H  0.71456670  0.07564523  0.36136291     0.13400
N1158       N  0.74221545  0.09278346  0.40057872    -0.82300
H1159       H  0.71399914  0.16947386  0.36844960     0.18200
N1160       N  0.68632048  0.15218614  0.32954569    -0.80900
H1161       H  0.74066716  0.07349855  0.39616478     0.33900
H1162       H  0.73347830  0.09526251  0.41822544     0.38400
H1163       H  0.68806898  0.17151276  0.33367477     0.33800
H1164       H  0.69447741  0.14942386  0.31166517     0.30500
H1165       H  0.72663383  0.06620287  0.29125518     0.33800
H1166       H  0.73004963  0.09602200  0.30186700     0.30500
H1167       H  0.60755157  0.07308856  0.31761170     0.38400
H1168       H  0.61029778  0.10285929  0.32848814     0.33900
C1169       C  0.49205254  0.87000291  0.14872947    -0.19900
C1170       C  0.49614999  0.86563091  0.17497487     0.36300
C1171       C  0.51488858  0.87958385  0.18782385    -0.25900
C1172       C  0.52934874  0.89788915  0.17517961     0.02800
C1173       C  0.52549086  0.90230462  0.14915835     0.27600
C1174       C  0.50693248  0.88827473  0.13615432    -0.25000
N1175       N  0.48112643  0.84741863  0.18864446    -0.82400
H1176       H  0.51802142  0.87648393  0.20792398     0.13400
C1177       C  0.54797650  0.91283694  0.18976069     0.02700
N1178       N  0.54054417  0.92090900  0.13607138    -0.80900
H1179       H  0.50414116  0.89163960  0.11606136     0.18200
C1180       C  0.57320697  0.90461786  0.19099600    -0.25800
C1181       C  0.59111619  0.91774443  0.20578715     0.36200
C1182       C  0.58338964  0.93927292  0.21978719    -0.19800
C1183       C  0.55820420  0.94778837  0.21789336    -0.25100
C1184       C  0.54040141  0.93475837  0.20298295     0.27600
H1185       H  0.57882332  0.88781060  0.18055979     0.13400
N1186       N  0.61704675  0.90934866  0.20665354    -0.82300
H1187       H  0.55223445  0.96424279  0.22869039     0.18200
N1188       N  0.51450557  0.94323853  0.20171986    -0.80900
H1189       H  0.61954923  0.89323851  0.19535801     0.33900
H1190       H  0.62825022  0.92367674  0.19871860     0.38400
H1191       H  0.51195296  0.95946281  0.21285318     0.33800
H1192       H  0.51081009  0.94861500  0.18297960     0.30500
H1193       H  0.53557770  0.92162691  0.11687087     0.33800
H1194       H  0.53617359  0.93869138  0.14370292     0.30500
H1195       H  0.46250604  0.85424820  0.18915780     0.38400
H1196       H  0.48712238  0.84608611  0.20751702     0.33900
C1197       C  0.37722209  0.21960253  0.07675453    -0.19900
C1198       C  0.35885467  0.23557645  0.08797648     0.36300
C1199       C  0.34124415  0.24824613  0.07239669    -0.25900
C1200       C  0.34129150  0.24491262  0.04592813     0.02800
C1201       C  0.35903633  0.22820832  0.03485526     0.27600
C1202       C  0.37682178  0.21584473  0.05034759    -0.25000
N1203       N  0.35802777  0.23877938  0.11506880    -0.82400
H1204       H  0.32767370  0.26113526  0.08089568     0.13400
C1205       C  0.32368660  0.26010581  0.02991445     0.02700
N1206       N  0.35902276  0.22400175  0.00787736    -0.80900
H1207       H  0.39077231  0.20350868  0.04164068     0.18200
C1208       C  0.33376951  0.27512387  0.01034785    -0.25800
C1209       C  0.31810712  0.29052622  0.99540489     0.36200
C1210       C  0.29189096  0.29140443  0.00024691    -0.19800
C1211       C  0.28165908  0.27640664  0.01973334    -0.25100
C1212       C  0.29725701  0.26044610  0.03440636     0.27600
H1213       H  0.35404348  0.27530480  0.00695826     0.13400
N1214       N  0.32900570  0.30595945  0.97586862    -0.82300
H1215       H  0.26144151  0.27710482  0.02338865     0.18200
N1216       N  0.28640371  0.24454837  0.05372770    -0.80900
H1217       H  0.34256463  0.31780880  0.98419036     0.33900
H1218       H  0.33830985  0.29400018  0.96304931     0.38400
H1219       H  0.26675539  0.24711953  0.05464309     0.33800
H1220       H  0.28941636  0.22569579  0.04833916     0.30500
H1221       H  0.37344481  0.21140144  0.00272061     0.33800
H1222       H  0.34185412  0.21524590  0.00316969     0.30500
H1223       H  0.35344920  0.22118933  0.12301731     0.38400
H1224       H  0.34346135  0.25123240  0.12019229     0.33900
C1225       C  0.48595608  0.22471622  0.07431237    -0.19900
C1226       C  0.50352781  0.24206858  0.08478846     0.36300
C1227       C  0.52050880  0.25486228  0.06864124    -0.25900
C1228       C  0.52013404  0.25098690  0.04224638     0.02800
C1229       C  0.50229450  0.23399243  0.03176435     0.27600
C1230       C  0.48564348  0.22086996  0.04790519    -0.25000
N1231       N  0.50447612  0.24628695  0.11174008    -0.82400
H1232       H  0.53444747  0.26763062  0.07673640     0.13400
C1233       C  0.53892384  0.26440099  0.02594507     0.02700
N1234       N  0.50098653  0.23031274  0.00474299    -0.80900
H1235       H  0.47200490  0.20783460  0.03972093     0.18200
C1236       C  0.55447264  0.25027437  0.00949601    -0.25800
C1237       C  0.57305945  0.26214605  0.99449865     0.36200
C1238       C  0.57629390  0.28863212  0.99617745    -0.19800
C1239       C  0.56075920  0.30279389  0.01248036    -0.25100
C1240       C  0.54190204  0.29101008  0.02717165     0.27600
H1241       H  0.55245128  0.22983127  0.00876437     0.13400
N1242       N  0.58903048  0.24739805  0.97801110    -0.82300
H1243       H  0.56330573  0.32316806  0.01360301     0.18200
N1244       N  0.52568918  0.30595154  0.04323349    -0.80900
H1245       H  0.58413178  0.22819843  0.97889904     0.33900
H1246       H  0.60762195  0.24884130  0.98479390     0.38400
H1247       H  0.53045735  0.32517261  0.04205979     0.33800
H1248       H  0.50718522  0.30423833  0.03629103     0.30500
H1249       H  0.48691433  0.21710775  0.00011772     0.33800
H1250       H  0.49550426  0.24754564  0.99660122     0.30500
H1251       H  0.51031771  0.22935312  0.12025576     0.38400
H1252       H  0.51819903  0.25990026  0.11623490     0.33900
C1253       C  0.49019241  0.14668919  0.15740495    -0.19900
C1254       C  0.49379327  0.12025039  0.15387526     0.36300
C1255       C  0.51209396  0.10741307  0.16836470    -0.25900
C1256       C  0.52671725  0.12016019  0.18649956     0.02800
C1257       C  0.52322410  0.14640211  0.19022848     0.27600
C1258       C  0.50496772  0.15941797  0.17567461    -0.25000
N1259       N  0.47861210  0.10633165  0.13595062    -0.82400
H1260       H  0.51490300  0.08722232  0.16564832     0.13400
C1261       C  0.54551441  0.10554656  0.20148523     0.02700
N1262       N  0.53814089  0.15963793  0.20885971    -0.80900
H1263       H  0.50233160  0.17959459  0.17857716     0.18200
C1264       C  0.57145745  0.11042524  0.19823802    -0.25800
C1265       C  0.58983087  0.09617765  0.21133103     0.36200
C1266       C  0.58198728  0.07702040  0.22836807    -0.19800
C1267       C  0.55600891  0.07211652  0.23148162    -0.25100
C1268       C  0.53768432  0.08617854  0.21820096     0.27600
H1269       H  0.57734503  0.12505833  0.18504956     0.13400
N1270       N  0.61638007  0.10071944  0.20703883    -0.82300
H1271       H  0.55000536  0.05747425  0.24460659     0.18200
N1272       N  0.51113857  0.08099509  0.22167797    -0.80900
H1273       H  0.61891899  0.11540375  0.19394142     0.33900
H1274       H  0.62399030  0.08437167  0.19876378     0.38400
H1275       H  0.50856625  0.06603347  0.23446126     0.33800
H1276       H  0.50294241  0.09703144  0.22998139     0.30500
H1277       H  0.53336394  0.17888143  0.20921560     0.33800
H1278       H  0.53343178  0.15228451  0.22668337     0.30500
H1279       H  0.45993835  0.10641051  0.14263092     0.38400
H1280       H  0.48421601  0.08731198  0.13520356     0.33900
C1281       C  0.15193752  0.13900475  0.38306587    -0.19900
C1282       C  0.17512215  0.14870167  0.37331829     0.36300
C1283       C  0.18901276  0.13436209  0.35559863    -0.25900
C1284       C  0.18018482  0.11086012  0.34693485     0.02800
C1285       C  0.15662238  0.10169054  0.35551901     0.27600
C1286       C  0.14281055  0.11573630  0.37357258    -0.25000
N1287       N  0.18471779  0.17291138  0.38147952    -0.82400
H1288       H  0.20706091  0.14138891  0.34869765     0.13400
C1289       C  0.19644263  0.09560199  0.32971250     0.02700
N1290       N  0.14693757  0.07805504  0.34594609    -0.80900
H1291       H  0.12497894  0.10823027  0.38048391     0.18200
C1292       C  0.20752478  0.07322990  0.33888271    -0.25800
C1293       C  0.22449135  0.05909434  0.32388046     0.36200
C1294       C  0.23002092  0.06721468  0.29890327    -0.19800
C1295       C  0.21860431  0.08950788  0.28968119    -0.25100
C1296       C  0.20193005  0.10380805  0.30486256     0.27600
H1297       H  0.20347331  0.06721759  0.35813181     0.13400
N1298       N  0.23670367  0.03699384  0.33419618    -0.82300
H1299       H  0.22269416  0.09575609  0.27052152     0.18200
N1300       N  0.19058424  0.12665702  0.29523012    -0.80900
H1301       H  0.23056894  0.03362281  0.35276511     0.33900
H1302       H  0.25613718  0.04082796  0.33526568     0.38400
H1303       H  0.19667217  0.13016774  0.27666662     0.33800
H1304       H  0.17099649  0.12369629  0.29431230     0.30500
H1305       H  0.12936985  0.07390393  0.35414754     0.33800
H1306       H  0.14370434  0.08034724  0.32648727     0.30500
H1307       H  0.17233071  0.18680489  0.37461960     0.38400
H1308       H  0.20237003  0.17665034  0.37324100     0.33900
C1309       C  0.38337126  0.14272161  0.15968343    -0.19900
C1310       C  0.36702111  0.15375523  0.17786969     0.36300
C1311       C  0.35245317  0.13798145  0.19368240    -0.25900
C1312       C  0.35354183  0.11147743  0.19149378     0.02800
C1313       C  0.36921659  0.10044835  0.17280727     0.27600
C1314       C  0.38387879  0.11617733  0.15706678    -0.25000
N1315       N  0.36492165  0.18086940  0.17997688    -0.82400
H1316       H  0.33982406  0.14639554  0.20755945     0.13400
C1317       C  0.33721822  0.09567261  0.20816240     0.02700
N1318       N  0.37043565  0.07332374  0.17012968    -0.80900
H1319       H  0.39630943  0.10757400  0.14313164     0.18200
C1320       C  0.31957101  0.07918196  0.19701171    -0.25800
C1321       C  0.30269022  0.06504026  0.21194123     0.36200
C1322       C  0.30335594  0.06756865  0.23862523    -0.19800
C1323       C  0.32112624  0.08388177  0.24987005    -0.25100
C1324       C  0.33834684  0.09772842  0.23488425     0.27600
H1325       H  0.31856507  0.07781134  0.17650917     0.13400
N1326       N  0.28447317  0.04850968  0.20010293    -0.82300
H1327       H  0.32170158  0.08557729  0.27036545     0.18200
N1328       N  0.35704945  0.11375353  0.24662200    -0.80900
H1329       H  0.28663502  0.04863562  0.18036870     0.33900
H1330       H  0.26641326  0.05576233  0.20389789     0.38400
H1331       H  0.35534615  0.11315389  0.26638901     0.33800
H1332       H  0.37489983  0.10629879  0.24223612     0.30500
H1333       H  0.38269037  0.06827455  0.15535883     0.33800
H1334       H  0.37827033  0.06599680  0.18681871     0.30500
H1335       H  0.35710223  0.18756555  0.16300923     0.38400
H1336       H  0.35221907  0.18582439  0.19439564     0.33900
C1337       C  0.15893829  0.85173127  0.37561934    -0.19900
C1338       C  0.18493296  0.84583456  0.37197801     0.36300
C1339       C  0.19946152  0.86044971  0.35503358    -0.25900
C1340       C  0.18888890  0.88126946  0.34233849     0.02800
C1341       C  0.16327346  0.88765408  0.34649208     0.27600
C1342       C  0.14851205  0.87266722  0.36279171    -0.25000
N1343       N  0.19670275  0.82547026  0.38580199    -0.82400
H1344       H  0.21922099  0.85575399  0.35185903     0.13400
C1345       C  0.20467217  0.89632833  0.32459928     0.02700
N1346       N  0.15246548  0.90956806  0.33434718    -0.80900
H1347       H  0.12877312  0.87759603  0.36566853     0.18200
C1348       C  0.19692945  0.89850772  0.29921194    -0.25800
C1349       C  0.21031942  0.91383715  0.28207765     0.36200
C1350       C  0.23200983  0.92702066  0.29050663    -0.19800
C1351       C  0.24008623  0.92451897  0.31573657    -0.25100
C1352       C  0.22664780  0.90919136  0.33292354     0.27600
H1353       H  0.18016342  0.88842366  0.29287108     0.13400
N1354       N  0.20184755  0.91635691  0.25624863    -0.82300
H1355       H  0.25692785  0.93454326  0.32196801     0.18200
N1356       N  0.23502823  0.90684801  0.35878954    -0.80900
H1357       H  0.18567152  0.90530838  0.25309135     0.33900
H1358       H  0.19643221  0.93524364  0.25353352     0.38400
H1359       H  0.25162532  0.91732499  0.36172717     0.33800
H1360       H  0.22110436  0.91489434  0.37039105     0.30500
H1361       H  0.13338987  0.91165563  0.33933928     0.33800
H1362       H  0.16193197  0.92555874  0.34132479     0.30500
H1363       H  0.19693285  0.83064053  0.40497092     0.38400
H1364       H  0.21567006  0.82334956  0.38039634     0.33900
C1365       C  0.28843338  0.93504099  0.21516363    -0.19900
C1366       C  0.27908366  0.91584936  0.19892338     0.36300
C1367       C  0.29587325  0.90337421  0.18229216    -0.25900
C1368       C  0.32175919  0.90967096  0.18170274     0.02800
C1369       C  0.33091753  0.92924760  0.19754946     0.27600
C1370       C  0.31412984  0.94185040  0.21386992    -0.25000
N1371       N  0.25266946  0.90909731  0.19944595    -0.82400
H1372       H  0.28884237  0.88852615  0.16991697     0.13400
C1373       C  0.33959966  0.89507290  0.16546313     0.02700
N1374       N  0.35743624  0.93570223  0.19760322    -0.80900
H1375       H  0.32139508  0.95636598  0.22650862     0.18200
C1376       C  0.35534665  0.90820876  0.14849278    -0.25800
C1377       C  0.37558978  0.89602429  0.13618124     0.36200
C1378       C  0.37965187  0.86982505  0.14030170    -0.19800
C1379       C  0.36278795  0.85636499  0.15598593    -0.25100
C1380       C  0.34289709  0.86871378  0.16872046     0.27600
H1381       H  0.35251658  0.92839250  0.14579052     0.13400
N1382       N  0.39249978  0.91042240  0.12034099    -0.82300
H1383       H  0.36542609  0.83616495  0.15874286     0.18200
N1384       N  0.32655060  0.85472857  0.18549877    -0.80900
H1385       H  0.38653073  0.92929280  0.11901998     0.33900
H1386       H  0.41020575  0.91076619  0.12929696     0.38400
H1387       H  0.33133228  0.83547206  0.18549878     0.33800
H1388       H  0.32970952  0.86136620  0.20393288     0.30500
H1389       H  0.36104363  0.95060285  0.21020201     0.33800
H1390       H  0.36744611  0.91997804  0.20439568     0.30500
H1391       H  0.24231295  0.92493111  0.19350691     0.38400
H1392       H  0.24890390  0.89459415  0.18642578     0.33900
C1393       C  0.64414948  0.93596656  0.29233458    -0.19900
C1394       C  0.66240915  0.91846851  0.28350654     0.36300
C1395       C  0.67646009  0.90423744  0.30110015    -0.25900
C1396       C  0.67292403  0.90754905  0.32724909     0.02800
C1397       C  0.65508783  0.92540977  0.33611759     0.27600
C1398       C  0.64084939  0.93949767  0.31852446    -0.25000
N1399       N  0.66687737  0.91558213  0.25672932    -0.82400
H1400       H  0.69048906  0.89075213  0.29446267     0.13400
C1401       C  0.68827759  0.89238554  0.34519076     0.02700
N1402       N  0.65145011  0.92899680  0.36292915    -0.80900
H1403       H  0.62690987  0.95304850  0.32521078     0.18200
C1404       C  0.70571342  0.90478128  0.36092792    -0.25800
C1405       C  0.72019334  0.89125010  0.37871406     0.36200
C1406       C  0.71735088  0.86459071  0.38055112    -0.19800
C1407       C  0.69996447  0.85221431  0.36453264    -0.25100
C1408       C  0.68536668  0.86587557  0.34687818     0.27600
H1409       H  0.70778404  0.92518938  0.35948413     0.13400
N1410       N  0.73725459  0.90462789  0.39528345    -0.82300
H1411       H  0.69772474  0.83182043  0.36580317     0.18200
N1412       N  0.66740898  0.85303599  0.33083481    -0.80900
H1413       H  0.73737180  0.92402177  0.39111053     0.33900
H1414       H  0.73012644  0.90293215  0.41369992     0.38400
H1415       H  0.66763145  0.83351946  0.33434899     0.33800
H1416       H  0.64930254  0.85948180  0.33574829     0.30500
H1417       H  0.63773417  0.94292233  0.36629829     0.33800
H1418       H  0.64429138  0.91204698  0.37033885     0.30500
H1419       H  0.67392839  0.93284188  0.24993509     0.38400
H1420       H  0.68095493  0.90201723  0.25341797     0.33900
C1421       C  0.79620407  0.78559227  0.49023709    -0.19900
C1422       C  0.78962716  0.76082897  0.49840770     0.36300
C1423       C  0.80324932  0.74961008  0.51837850    -0.25900
C1424       C  0.82340989  0.76235945  0.53001650     0.02800
C1425       C  0.82992007  0.78698359  0.52224682     0.27600
C1426       C  0.81629437  0.79837077  0.50241968    -0.25000
N1427       N  0.76952700  0.74693695  0.48626189    -0.82400
H1428       H  0.79860350  0.73053560  0.52449866     0.13400
C1429       C  0.83860787  0.74893789  0.54921834     0.02700
N1430       N  0.85044203  0.80018749  0.53446300    -0.80900
H1431       H  0.82138401  0.81740211  0.49657827     0.18200
C1432       C  0.86186991  0.73847165  0.54191768    -0.25800
C1433       C  0.87614783  0.72383838  0.55892929     0.36200
C1434       C  0.86712641  0.72022498  0.58396589    -0.19800
C1435       C  0.84401060  0.73125414  0.59132856    -0.25100
C1436       C  0.82959657  0.74556210  0.57410955     0.27600
H1437       H  0.86846207  0.74109212  0.52260501     0.13400
N1438       N  0.89926662  0.71196066  0.55061380    -0.82300
H1439       H  0.83714111  0.72854524  0.61052264     0.18200
N1440       N  0.80575135  0.75643671  0.58161625    -0.80900
H1441       H  0.90320240  0.71666651  0.53173451     0.33900
H1442       H  0.89646123  0.69233325  0.55109595     0.38400
H1443       H  0.80173057  0.75198468  0.60053375     0.33800
H1444       H  0.80761523  0.77616516  0.58071309     0.30500
H1445       H  0.85293110  0.81814745  0.52642923     0.33800
H1446       H  0.84527749  0.80311866  0.55340714     0.30500
H1447       H  0.77542140  0.74288706  0.46774603     0.38400
H1448       H  0.76669226  0.72944170  0.49517414     0.33900
C1449       C  0.71957590  0.86257409  0.49031955    -0.19900
C1450       C  0.72167975  0.88912026  0.49333007     0.36300
C1451       C  0.70780767  0.90120099  0.51255996    -0.25900
C1452       C  0.69223870  0.88733026  0.52909295     0.02800
C1453       C  0.69068715  0.86073633  0.52656804     0.27600
C1454       C  0.70410386  0.84868672  0.50699356    -0.25000
N1455       N  0.73730836  0.90383365  0.47651459    -0.82400
H1456       H  0.70867414  0.92166654  0.51430112     0.13400
C1457       C  0.67688368  0.90111500  0.54821070     0.02700
N1458       N  0.67561833  0.84609807  0.54397504    -0.80900
H1459       H  0.70274622  0.82826944  0.50498007     0.18200
C1460       C  0.65053035  0.89729537  0.54884444    -0.25800
C1461       C  0.63514876  0.91066870  0.56595471     0.36200
C1462       C  0.64635037  0.92855558  0.58239600    -0.19800
C1463       C  0.67265643  0.93247113  0.58174120    -0.25100
C1464       C  0.68812387  0.91865511  0.56505954     0.27600
H1465       H  0.64188246  0.88411161  0.53563542     0.13400
N1466       N  0.60820826  0.90644529  0.56646564    -0.82300
H1467       H  0.68116865  0.94603852  0.59465838     0.18200
N1468       N  0.71517652  0.92215874  0.56530750    -0.80900
H1469       H  0.60305106  0.89250456  0.55331343     0.33900
H1470       H  0.59937233  0.92325183  0.56073652     0.38400
H1471       H  0.72035696  0.93578704  0.57877492     0.33800
H1472       H  0.72337928  0.90504747  0.57108763     0.30500
H1473       H  0.67643542  0.82680171  0.53944062     0.33800
H1474       H  0.68367767  0.84806798  0.56201008     0.30500
H1475       H  0.72909975  0.90286484  0.45848341     0.38400
H1476       H  0.73718389  0.92296491  0.48173588     0.33900
C1477       C  0.79461694  0.78360776  0.37870510    -0.19900
C1478       C  0.82078836  0.78689537  0.37365611     0.36300
C1479       C  0.83247552  0.77170627  0.35519351    -0.25900
C1480       C  0.81874889  0.75308685  0.34215671     0.02800
C1481       C  0.79265419  0.75003308  0.34672574     0.27600
C1482       C  0.78082586  0.76534196  0.36494918    -0.25000
N1483       N  0.83563542  0.80491001  0.38779294    -0.82400
H1484       H  0.85264210  0.77362939  0.35167069     0.13400
C1485       C  0.83249014  0.73547218  0.32542036     0.02700
N1486       N  0.77842440  0.73119021  0.33302776    -0.80900
H1487       H  0.76073719  0.76285811  0.36850269     0.18200
C1488       C  0.83391404  0.70987373  0.33242455    -0.25800
C1489       C  0.84782049  0.69258937  0.31784497     0.36200
C1490       C  0.86027081  0.70119224  0.29581879    -0.19800
C1491       C  0.85898468  0.72681237  0.28885293    -0.25100
C1492       C  0.84504169  0.74411963  0.30346943     0.27600
H1493       H  0.82447644  0.70351572  0.34955881     0.13400
N1494       N  0.84961075  0.66642616  0.32536843    -0.82300
H1495       H  0.86849479  0.73315025  0.27175384     0.18200
N1496       N  0.84338403  0.77032303  0.29611169    -0.80900
H1497       H  0.83928455  0.66322574  0.34200469     0.33900
H1498       H  0.86861478  0.66272467  0.32969730     0.38400
H1499       H  0.85378080  0.77355823  0.27952565     0.33800
H1500       H  0.82440980  0.77412314  0.29174247     0.30500
H1501       H  0.75944297  0.73122615  0.33877709     0.33800
H1502       H  0.77857283  0.73631057  0.31385218     0.30500
H1503       H  0.83641605  0.79856628  0.40658398     0.38400
H1504       H  0.85435323  0.80526880  0.38123229     0.33900
C1505       C  0.29514700  0.70755975  0.86977115    -0.19900
C1506       C  0.30705030  0.69783684  0.84781847     0.36300
C1507       C  0.32417197  0.71299524  0.83432295    -0.25900
C1508       C  0.33099896  0.73717488  0.84314406     0.02800
C1509       C  0.32020655  0.74643466  0.86584892     0.27600
C1510       C  0.30191808  0.73184822  0.87849136    -0.25000
N1511       N  0.30246539  0.67235202  0.83953932    -0.82400
H1512       H  0.33232874  0.70568120  0.81691915     0.13400
C1513       C  0.34934501  0.75263910  0.82843740     0.02700
N1514       N  0.32803226  0.77049316  0.87610473    -0.80900
H1515       H  0.29291372  0.73953906  0.89529834     0.18200
C1516       C  0.34315338  0.77786628  0.82235986    -0.25800
C1517       C  0.36028599  0.79340733  0.80922685     0.36200
C1518       C  0.38368877  0.78322889  0.80148248    -0.19800
C1519       C  0.38958717  0.75786257  0.80665258    -0.25100
C1520       C  0.37285945  0.74252526  0.82047470     0.27600
H1521       H  0.32485743  0.78543715  0.82786528     0.13400
N1522       N  0.35392724  0.81929026  0.80341001    -0.82300
H1523       H  0.40770357  0.75025981  0.80056883     0.18200
N1524       N  0.37987986  0.71694916  0.82686203    -0.80900
H1525       H  0.33598537  0.82382732  0.81055353     0.33900
H1526       H  0.35276075  0.82090892  0.78365890     0.38400
H1527       H  0.39769893  0.71247211  0.81937861     0.33800
H1528       H  0.38156853  0.71594232  0.84660934     0.30500
H1529       H  0.31823448  0.77452397  0.89288374     0.33800
H1530       H  0.34720164  0.76897669  0.88097992     0.30500
H1531       H  0.31978214  0.66268496  0.83939370     0.38400
H1532       H  0.29565997  0.67300552  0.82090140     0.33900
C1533       C  0.58482961  0.93135300  0.65425454    -0.19900
C1534       C  0.59177992  0.90901109  0.66733023     0.36300
C1535       C  0.57349089  0.89614055  0.68174563    -0.25900
C1536       C  0.54872756  0.90552590  0.68378967     0.02800
C1537       C  0.54193292  0.92820703  0.67147481     0.27600
C1538       C  0.56005632  0.94088482  0.65675201    -0.25000
N1539       N  0.61736176  0.89964463  0.66612245    -0.82400
H1540       H  0.57853682  0.87880679  0.69158673     0.13400
C1541       C  0.52992178  0.89124013  0.69869377     0.02700
N1542       N  0.51655834  0.93798311  0.67366706    -0.80900
H1543       H  0.55461728  0.95791002  0.64659216     0.18200
C1544       C  0.52029349  0.90191154  0.72101505    -0.25800
C1545       C  0.50210235  0.88906724  0.73560230     0.36200
C1546       C  0.49290135  0.86523616  0.72714893    -0.19800
C1547       C  0.50298965  0.85457927  0.70480364    -0.25100
C1548       C  0.52143805  0.86730694  0.69055213     0.27600
H1549       H  0.52724280  0.92026888  0.72716505     0.13400
N1550       N  0.49307994  0.90024680  0.75880519    -0.82300
H1551       H  0.49636479  0.83627501  0.69820512     0.18200
N1552       N  0.53143365  0.85618322  0.66771065    -0.80900
H1553       H  0.50088824  0.91829425  0.76142702     0.33900
H1554       H  0.49984913  0.88910477  0.77377057     0.38400
H1555       H  0.52337247  0.83834211  0.66448448     0.33800
H1556       H  0.52597986  0.86769975  0.65250349     0.30500
H1557       H  0.51472356  0.95497460  0.66360197     0.33800
H1558       H  0.50431507  0.92493621  0.66507566     0.30500
H1559       H  0.62910889  0.91321399  0.67461240     0.38400
H1560       H  0.61924947  0.88302125  0.67675751     0.33900
C1561       C  0.57805550  0.70942868  0.87319501    -0.19900
C1562       C  0.55224209  0.70973402  0.88035130     0.36300
C1563       C  0.53534596  0.72571980  0.86739750    -0.25900
C1564       C  0.54377644  0.74111341  0.84743477     0.02800
C1565       C  0.56948238  0.74084951  0.84026013     0.27600
C1566       C  0.58642342  0.72503281  0.85329331    -0.25000
N1567       N  0.54325064  0.69354683  0.90038402    -0.82400
H1568       H  0.51545598  0.72596906  0.87259318     0.13400
C1569       C  0.52520818  0.75641257  0.83321886     0.02700
N1570       N  0.57815165  0.75646430  0.81963483    -0.80900
H1571       H  0.60628181  0.72489131  0.84797307     0.18200
C1572       C  0.52582742  0.78292483  0.83515049    -0.25800
C1573       C  0.50875161  0.79798616  0.82129005     0.36200
C1574       C  0.49093749  0.78609978  0.80516311    -0.19800
C1575       C  0.49049235  0.75953366  0.80328392    -0.25100
C1576       C  0.50737611  0.74454998  0.81727870     0.27600
H1577       H  0.53972800  0.79180980  0.84743983     0.13400
N1578       N  0.50968204  0.82517855  0.82325406    -0.82300
H1579       H  0.47667627  0.75039643  0.79108219     0.18200
N1580       N  0.50654986  0.71734055  0.81541013    -0.80900
H1581       H  0.52372368  0.83078283  0.83611785     0.33900
H1582       H  0.51505163  0.83228716  0.80552375     0.38400
H1583       H  0.49209905  0.71160767  0.80306519     0.33800
H1584       H  0.52362786  0.71133561  0.80731813     0.30500
H1585       H  0.59765697  0.75416097  0.81687884     0.33800
H1586       H  0.56929644  0.75003112  0.80307139     0.30500
H1587       H  0.54560864  0.67476807  0.89443471     0.38400
H1588       H  0.52381922  0.69620113  0.90333274     0.33900
C1589       C  0.29182098  0.92267501  0.64551916    -0.19900
C1590       C  0.28809935  0.92362486  0.67199138     0.36300
C1591       C  0.30614138  0.91245718  0.68804519    -0.25900
C1592       C  0.32759838  0.90048644  0.67792928     0.02800
C1593       C  0.33144160  0.89980848  0.65147641     0.27600
C1594       C  0.31331445  0.91074468  0.63545311    -0.25000
N1595       N  0.26597885  0.93577227  0.68232606    -0.82400
H1596       H  0.30334917  0.91272662  0.70842569     0.13400
C1597       C  0.34544647  0.88757764  0.69504110     0.02700
N1598       N  0.35384199  0.88817469  0.64112395    -0.80900
H1599       H  0.31619340  0.91051428  0.61507854     0.18200
C1600       C  0.34750704  0.86118048  0.69344011    -0.25800
C1601       C  0.36517163  0.84799049  0.70821522     0.36200
C1602       C  0.38135960  0.86167986  0.72466685    -0.19800
C1603       C  0.37853380  0.88810032  0.72696733    -0.25100
C1604       C  0.36074329  0.90124880  0.71214380     0.27600
H1605       H  0.33528664  0.85087903  0.68047634     0.13400
N1606       N  0.36657429  0.82078403  0.70667165    -0.82300
H1607       H  0.39077990  0.89860730  0.73972272     0.18200
N1608       N  0.35850549  0.92837751  0.71392788    -0.80900
H1609       H  0.35355256  0.81379178  0.69341483     0.33900
H1610       H  0.36113385  0.81352911  0.72432107     0.38400
H1611       H  0.37110699  0.93553309  0.72749212     0.33800
H1612       H  0.36400218  0.93602126  0.69646036     0.30500
H1613       H  0.35375025  0.88925169  0.62130575     0.33800
H1614       H  0.36946798  0.89872542  0.64732124     0.30500
H1615       H  0.25012199  0.92549117  0.67626722     0.38400
H1616       H  0.26615028  0.93486206  0.70214973     0.33900
C1617       C  0.71880471  0.55972303  0.79338706    -0.19900
C1618       C  0.69448217  0.56790412  0.78522585     0.36300
C1619       C  0.68105151  0.58567379  0.79994018    -0.25900
C1620       C  0.69117936  0.59510353  0.82263347     0.02800
C1621       C  0.71550671  0.58762171  0.83047182     0.27600
C1622       C  0.72907162  0.57007197  0.81581269    -0.25000
N1623       N  0.68327181  0.55806041  0.76236270    -0.82400
H1624       H  0.66231361  0.59176404  0.79405685     0.13400
C1625       C  0.67602127  0.61263052  0.83834421     0.02700
N1626       N  0.72623018  0.59782415  0.85341313    -0.80900
H1627       H  0.74772347  0.56429101  0.82220214     0.18200
C1628       C  0.66565651  0.60387539  0.86121311    -0.25800
C1629       C  0.65116409  0.61999370  0.87673085     0.36200
C1630       C  0.64749622  0.64552696  0.86935008    -0.19800
C1631       C  0.65812292  0.65419386  0.84646571    -0.25100
C1632       C  0.67232710  0.63795887  0.83086611     0.27600
H1633       H  0.66861452  0.58428863  0.86672934     0.13400
N1634       N  0.63972706  0.61039314  0.89957357    -0.82300
H1635       H  0.65540844  0.67376890  0.84081178     0.18200
N1636       N  0.68311423  0.64704169  0.80751593    -0.80900
H1637       H  0.64439609  0.59129616  0.90225200     0.33900
H1638       H  0.62005181  0.61114631  0.89721174     0.38400
H1639       H  0.67848837  0.66611736  0.80467230     0.33800
H1640       H  0.70285239  0.64620094  0.80930479     0.30500
H1641       H  0.74428592  0.59027940  0.85665085     0.33800
H1642       H  0.72864449  0.61733210  0.85074766     0.30500
H1643       H  0.67873628  0.53904000  0.76568308     0.38400
H1644       H  0.66610588  0.56721155  0.75846762     0.33900
C1645       C  0.79960658  0.44489695  0.72434910    -0.19900
C1646       C  0.81787740  0.43050023  0.73786550     0.36300
C1647       C  0.83131039  0.41128975  0.72521673    -0.25900
C1648       C  0.82655732  0.40589506  0.69967364     0.02800
C1649       C  0.80802682  0.41965784  0.68628099     0.27600
C1650       C  0.79477534  0.43908144  0.69873870    -0.25000
N1651       N  0.82256609  0.43511664  0.76436471    -0.82400
H1652       H  0.84548037  0.40032792  0.73531567     0.13400
C1653       C  0.84135433  0.38584562  0.68708844     0.02700
N1654       N  0.80247753  0.41356589  0.66024129    -0.80900
H1655       H  0.78075133  0.44986047  0.68827046     0.18200
C1656       C  0.83307549  0.36063391  0.68860976    -0.25800
C1657       C  0.84644441  0.34121904  0.67626722     0.36200
C1658       C  0.86820133  0.34720185  0.66195304    -0.19800
C1659       C  0.87684473  0.37241764  0.66117364    -0.25100
C1660       C  0.86370375  0.39181305  0.67377032     0.27600
H1661       H  0.81615946  0.35605655  0.69936461     0.13400
N1662       N  0.83816849  0.31545057  0.67863296    -0.82300
H1663       H  0.89360482  0.37707842  0.65021705     0.18200
N1664       N  0.87309285  0.41743871  0.67339441    -0.80900
H1665       H  0.83807990  0.31077382  0.69791648     0.33900
H1666       H  0.81951509  0.31432209  0.67196347     0.38400
H1667       H  0.89008550  0.41847147  0.66322111     0.33800
H1668       H  0.86000102  0.42864477  0.66360179     0.30500
H1669       H  0.78794672  0.42515444  0.65331514     0.33800
H1670       H  0.81855346  0.41767943  0.64940662     0.30500
H1671       H  0.80610439  0.43017534  0.77427092     0.38400
H1672       H  0.83694418  0.42324723  0.77114289     0.33900
C1673       C  0.71817443  0.45007837  0.79750675    -0.19900
C1674       C  0.71834632  0.44829248  0.82429173     0.36300
C1675       C  0.70350555  0.42960841  0.83624799    -0.25900
C1676       C  0.68843937  0.41285862  0.82204376     0.02800
C1677       C  0.68845445  0.41443567  0.79536123     0.27600
C1678       C  0.70316359  0.43311659  0.78339239    -0.25000
N1679       N  0.73307203  0.46570696  0.83928075    -0.82400
H1680       H  0.70330768  0.42834031  0.85678118     0.13400
C1681       C  0.67254318  0.39386757  0.83537272     0.02700
N1682       N  0.67370174  0.39688652  0.78055174    -0.80900
H1683       H  0.70315445  0.43419902  0.76285049     0.18200
C1684       C  0.64605461  0.39479120  0.83270834    -0.25800
C1685       C  0.63038068  0.37720122  0.84522994     0.36200
C1686       C  0.64152471  0.35830653  0.86056289    -0.19800
C1687       C  0.66798764  0.35752139  0.86332405    -0.25100
C1688       C  0.68364179  0.37499608  0.85071940     0.27600
H1689       H  0.63762646  0.40946207  0.82102418     0.13400
N1690       N  0.60326323  0.37863412  0.84274452    -0.82300
H1691       H  0.67646012  0.34287623  0.87501114     0.18200
N1692       N  0.71076473  0.37347637  0.85312989    -0.80900
H1693       H  0.59815149  0.39360364  0.83077000     0.33900
H1694       H  0.59583265  0.38288467  0.86065010     0.38400
H1695       H  0.71587311  0.35855157  0.86515829     0.33800
H1696       H  0.71812718  0.36911483  0.83522091     0.30500
H1697       H  0.67571957  0.40064704  0.76116602     0.33800
H1698       H  0.68112913  0.37875056  0.78360339     0.30500
H1699       H  0.72539317  0.48381405  0.83667613     0.38400
H1700       H  0.73130141  0.46156235  0.85860868     0.33900
C1701       C  0.80057705  0.55503179  0.71613541    -0.19900
C1702       C  0.82737108  0.55554304  0.71649796     0.36300
C1703       C  0.84027251  0.57385155  0.70204095    -0.25900
C1704       C  0.82692950  0.59136738  0.68712799     0.02800
C1705       C  0.80024584  0.59070649  0.68649412     0.27600
C1706       C  0.78732492  0.57238439  0.70084750    -0.25000
N1707       N  0.84135836  0.53724526  0.73111685    -0.82400
H1708       H  0.86082344  0.57442761  0.70224047     0.13400
C1709       C  0.84113556  0.61072105  0.67266904     0.02700
N1710       N  0.78643384  0.60890606  0.67158646    -0.80900
H1711       H  0.76677338  0.57200868  0.70054258     0.18200
C1712       C  0.84093535  0.60994937  0.64605040    -0.25800
C1713       C  0.85410511  0.62821397  0.63179312     0.36200
C1714       C  0.86744205  0.64758942  0.64452055    -0.19800
C1715       C  0.86780855  0.64821286  0.67112751    -0.25100
C1716       C  0.85458067  0.63002864  0.68537072     0.27600
H1717       H  0.83061337  0.59496494  0.63645837     0.13400
N1718       N  0.85423772  0.62708973  0.60452537    -0.82300
H1719       H  0.87810071  0.66320487  0.68074731     0.18200
N1720       N  0.85443254  0.63120833  0.71264085    -0.80900
H1721       H  0.84352025  0.61166323  0.59813812     0.33900
H1722       H  0.87292699  0.62378498  0.59875258     0.38400
H1723       H  0.86527384  0.64655125  0.71902033     0.33800
H1724       H  0.83576763  0.63468746  0.71839188     0.30500
H1725       H  0.76690490  0.60580661  0.67314039     0.33800
H1726       H  0.78995034  0.62685756  0.67928286     0.30500
H1727       H  0.83776148  0.51935258  0.72331479     0.38400
H1728       H  0.86087128  0.54034843  0.72936476     0.33900
loop_ 
_geom_bond_atom_site_label_1 
_geom_bond_atom_site_label_2 
_geom_bond_distance 
_geom_bond_site_symmetry_2 
_ccdc_geom_bond_type 
O1           Cu9   2.009       .  S
O1           C11   1.278       .  A
O2           Cu9   2.007       .  S
O2           C12   1.279       .  A
O3           Cu9   1.997       .  S
O3           C13   1.277       .  A
O4           Cu9   1.997       .  S
O4           C14   1.276       .  A
O5          Cu10   2.014       .  S
O5           C14   1.279       .  A
O6          Cu10   2.016       .  S
O6           C13   1.279       .  A
O7          Cu10   1.995       .  S
O7           C12   1.276       .  A
O8          Cu10   1.997       .  S
O8           C11   1.278       .  A
Cu9         Cu10   2.369       .  S
C11        C1617   1.489       .  S
C12        C1645   1.483       .  S
C13        C1673   1.483       .  S
C14        C1701   1.478       .  S
O15         Cu23   2.007       .  S
O15          C25   1.278       .  A
O16         Cu23   2.000       .  S
O16          C26   1.277       .  A
O17         Cu23   2.004       .  S
O17          C27   1.277       .  A
O18         Cu23   2.002       .  S
O18          C28   1.277       .  A
O19         Cu24   1.991       .  S
O19          C28   1.277       .  A
O20         Cu24   1.986       .  S
O20          C27   1.275       .  A
O21         Cu24   1.992       .  S
O21          C26   1.277       .  A
O22         Cu24   1.988       .  S
O22          C25   1.276       .  A
Cu23        Cu24   2.373       .  S
C25        C1574   1.473       .  S
C26        C1602   1.475       .  S
C27        C1518   1.462       .  S
C28        C1546   1.484       .  S
O29         Cu37   2.003       .  S
O29          C39   1.278       .  A
O30         Cu37   2.003       .  S
O30          C40   1.277       .  A
O31         Cu37   1.998       .  S
O31          C41   1.276       .  A
O32         Cu37   1.998       .  S
O32          C42   1.277       .  A
O33         Cu38   2.009       .  S
O33          C42   1.278       .  A
O34         Cu38   2.014       .  S
O34          C41   1.279       .  A
O35         Cu38   1.993       .  S
O35          C40   1.277       .  A
O36         Cu38   1.993       .  S
O36          C39   1.276       .  A
Cu37        Cu38   2.369       .  S
C39        C1449   1.477       .  S
C40        C1477   1.479       .  S
C41        C1406   1.483       .  S
C42        C1421   1.486       .  S
C43        C1365   1.486       .  S
C43          C44   1.404       .  A
C43          C48   1.398       .  A
C44          C45   1.414       .  A
C44          H49   1.081       .  S
C45          C56   1.504   1_565  S
C45          C46   1.411       .  A
C46          C47   1.404       .  A
C46          H50   1.081       .  S
C47        C1350   1.475       .  S
C47          C48   1.398       .  A
C48          H51   1.084       .  S
C52        C1294   1.491       .  S
C52          C53   1.404       .  A
C52          C57   1.410       .  A
C53          C54   1.399       .  A
C53          H58   1.084       .  S
C54        C1322   1.481       .  S
C54          C55   1.399       .  A
C55          C56   1.409       .  A
C55          H59   1.081       .  S
C56          C57   1.414       .  A
C57          H60   1.081       .  S
O61         Cu69   2.024       .  S
O61          C71   1.280       .  A
O62         Cu69   2.022       .  S
O62          C72   1.280       .  A
O63         Cu69   2.012       .  S
O63          C73   1.278       .  A
O64         Cu69   2.019       .  S
O64          C74   1.279       .  A
O65         Cu70   2.002       .  S
O65          C74   1.278       .  A
O66         Cu70   2.005       .  S
O66          C73   1.278       .  A
O67         Cu70   1.998       .  S
O67          C72   1.277       .  A
O68         Cu70   1.999       .  S
O68          C71   1.277       .  A
Cu69        Cu70   2.369       .  S
C71        C1253   1.490       .  S
C72        C1197   1.483       .  S
C73        C1309   1.484       .  S
C74        C1225   1.485       .  S
C75        C1182   1.483       .  S
C75          C76   1.403       .  A
C75          C80   1.399       .  A
C76          C77   1.414       .  A
C76          H81   1.079       .  S
C77          C88   1.509   1_565  S
C77          C78   1.414       .  A
C78          C79   1.402       .  A
C78          H82   1.079       .  S
C79        C1393   1.480       .  S
C79          C80   1.397       .  A
C80          H83   1.084       .  S
C84        C1141   1.479       .  S
C84          C85   1.398       .  A
C84          C89   1.401       .  A
C85          C86   1.398       .  A
C85          H90   1.084       .  S
C86        C1266   1.484       .  S
C86          C87   1.404       .  A
C87          C88   1.415       .  A
C87          H91   1.079       .  S
C88          C89   1.413       .  A
C89          H92   1.079       .  S
O93        Cu101   2.001       .  S
O93         C103   1.278       .  A
O94        Cu101   1.999       .  S
O94         C104   1.276       .  A
O95        Cu101   1.994       .  S
O95         C105   1.276       .  A
O96        Cu101   1.994       .  S
O96         C106   1.277       .  A
O97        Cu102   2.008       .  S
O97         C106   1.278       .  A
O98        Cu102   2.007       .  S
O98         C105   1.278       .  A
O99        Cu102   1.997       .  S
O99         C104   1.277       .  A
O100       Cu102   1.999       .  S
O100        C103   1.276       .  A
Cu101      Cu102   2.370       .  S
C103       C1070   1.487       .  S
C104       C1113   1.480       .  S
C105       C1085   1.476       .  S
C106       C1154   1.477       .  S
C107       C1533   1.481       .  S
C107        C108   1.399       .  A
C107        C112   1.403       .  A
C108        C109   1.396       .  A
C108        H113   1.083       .  S
C109       C1462   1.476       .  S
C109        C110   1.400       .  A
C110        C111   1.412       .  A
C110        H114   1.080       .  S
C111        C118   1.501   1_565  S
C111        C112   1.410       .  A
C112        H115   1.080       .  S
C116       C1042   1.476       .  S
C116        C117   1.402       .  A
C116        C121   1.398       .  A
C117        C118   1.413       .  A
C117        H122   1.080       .  S
C118        C119   1.409       .  A
C119        C120   1.399       .  A
C119        H123   1.080       .  S
C120       C1126   1.472       .  S
C120        C121   1.397       .  A
C121        H124   1.084       .  S
C125       C1001   1.484       .  S
C125        C126   1.406       .  A
C125        C130   1.399       .  A
C126        C127   1.415       .  A
C126        H131   1.079       .  S
C127        C136   1.501   1_565  S
C127        C128   1.406       .  A
C128        C129   1.396       .  A
C128        H132   1.080       .  S
C129       C1589   1.468       .  S
C129        C130   1.396       .  A
C130        H133   1.084       .  S
C134        C973   1.481       .  S
C134        C135   1.402       .  A
C134        C139   1.395       .  A
C135        C136   1.417       .  A
C135        H140   1.080       .  S
C136        C137   1.410       .  A
C137        C138   1.398       .  A
C137        H141   1.079       .  S
C138        C958   1.472       .  S
C138        C139   1.395       .  A
C139        H142   1.084       .  S
O143       Cu151   2.007       .  S
O143        C153   1.278       .  A
O144       Cu151   2.008       .  S
O144        C154   1.278       .  A
O145       Cu151   1.997       .  S
O145        C155   1.276       .  A
O146       Cu151   1.996       .  S
O146        C156   1.275       .  A
O147       Cu152   2.008       .  S
O147        C156   1.277       .  A
O148       Cu152   2.007       .  S
O148        C155   1.279       .  A
O149       Cu152   2.007       .  S
O149        C154   1.278       .  A
O150       Cu152   2.018       .  S
O150        C153   1.280       .  A
Cu151      Cu152   2.370       .  S
C153        C917   1.493       .  S
C154       C1029   1.482       .  S
C155        C889   1.485       .  S
C156        C986   1.465       .  S
O157       Cu165   2.002       .  S
O157        C167   1.276       .  A
O158       Cu165   1.999       .  S
O158        C168   1.276       .  A
O159       Cu165   2.002       .  S
O159        C169   1.278       .  A
O160       Cu165   2.004       .  S
O160        C170   1.277       .  A
O161       Cu166   2.002       .  S
O161        C170   1.278       .  A
O162       Cu166   2.001       .  S
O162        C169   1.277       .  A
O163       Cu166   2.025       .  S
O163        C168   1.281       .  A
O164       Cu166   2.026       .  S
O164        C167   1.281       .  A
Cu165      Cu166   2.366       .  S
C167       C1281   1.495       .  S
C168        C833   1.494       .  S
C169        C945   1.479       .  S
C170        C874   1.484       .  S
C171       C1686   1.481       .  S
C171        C172   1.403       .  A
C171        C176   1.399       .  A
C172        C173   1.413       .  A
C172        H177   1.080       .  S
C173        C182   1.502       .  S
C173        C174   1.408       .  A
C174        C175   1.402       .  A
C174        H178   1.081       .  S
C175        C902   1.479       .  S
C175        C176   1.401       .  A
C176        H179   1.084       .  S
C180       C1238   1.479       .  S
C180        C181   1.403       .  A
C180        C185   1.398       .  A
C181        C182   1.415       .  A
C181        H186   1.080       .  S
C182        C183   1.409       .  A
C183        C184   1.402       .  A
C183        H187   1.081       .  S
C184        C805   1.480       .  S
C184        C185   1.399       .  A
C185        H188   1.084   1_556  S
O189       Cu197   2.000       .  S
O189        C199   1.278       .  A
O190       Cu197   2.005       .  S
O190        C200   1.279       .  A
O191       Cu197   1.998       .  S
O191        C201   1.276       .  A
O192       Cu197   1.998       .  S
O192        C202   1.278       .  A
O193       Cu198   2.007       .  S
O193        C202   1.277       .  A
O194       Cu198   2.012       .  S
O194        C201   1.279       .  A
O195       Cu198   1.997       .  S
O195        C200   1.276       .  A
O196       Cu198   1.995       .  S
O196        C199   1.276       .  A
Cu197      Cu198   2.366       .  S
C199        C734   1.483       .  S
C200        C818   1.487       .  S
C201        C762   1.487       .  S
C202        C777   1.486       .  S
C203       C1630   1.484       .  S
C203        C204   1.406       .  A
C203        C208   1.400       .  A
C204        C205   1.413       .  A
C204        H209   1.080       .  S
C205        C216   1.502       .  S
C205        C206   1.411       .  A
C206        C207   1.398       .  A
C206        H210   1.079       .  S
C207       C1561   1.478       .  S
C207        C208   1.397       .  A
C208        H211   1.084       .  S
C212        C693   1.486   1_556  S
C212        C213   1.401   1_556  A
C212        C217   1.402       .  A
C213        C214   1.400   1_554  A
C213        H218   1.084       .  S
C214        C790   1.477   1_556  S
C214        C215   1.403       .  A
C215        C216   1.409       .  A
C215        H219   1.080       .  S
C216        C217   1.411       .  A
C217        H220   1.080       .  S
C221       C1505   1.487       .  S
C221        C222   1.400       .  A
C221        C226   1.404       .  A
C222        C223   1.396       .  A
C222        H227   1.083       .  S
C223        C665   1.474       .  S
C223        C224   1.399       .  A
C224        C225   1.411       .  A
C224        H228   1.080       .  S
C225        C232   1.500       .  S
C225        C226   1.411       .  A
C226        H229   1.080       .  S
C230        C609   1.480   1_556  S
C230        C231   1.401       .  A
C230        C235   1.399   1_556  A
C231        C232   1.410       .  A
C231        H236   1.080       .  S
C232        C233   1.412       .  A
C233        C234   1.401       .  A
C233        H237   1.080       .  S
C234        C650   1.481   1_556  S
C234        C235   1.401   1_556  A
C235        H238   1.084       .  S
O239       Cu247   2.005       .  S
O239        C249   1.278       .  A
O240       Cu247   2.007       .  S
O240        C250   1.277       .  A
O241       Cu247   2.001       .  S
O241        C251   1.277       .  A
O242       Cu247   1.997       .  S
O242        C252   1.277       .  A
O243       Cu248   2.010       .  S
O243        C252   1.278       .  A
O244       Cu248   2.010       .  S
O244        C251   1.279       .  A
O245       Cu248   2.005       .  S
O245        C250   1.278       .  A
O246       Cu248   2.004       .  S
O246        C249   1.277       .  A
Cu247      Cu248   2.368       .  S
C249       C1378   1.483       .  S
C250        C706   1.490       .  S
C251       C1169   1.486       .  S
C252        C637   1.481       .  S
C253        C930   1.481       .  S
C253        C254   1.407       .  A
C253        C258   1.398       .  A
C254        C255   1.417       .  A
C254        H259   1.079       .  S
C255        C266   1.512       .  S
C255        C256   1.414       .  A
C256        C257   1.400       .  A
C256        H260   1.078       .  S
C257        C581   1.479       .  S
C257        C258   1.396       .  A
C258        H261   1.084       .  S
C262        C553   1.477   1_556  S
C262        C263   1.395       .  A
C262        C267   1.400       .  A
C263        C264   1.398       .  A
C263        H268   1.084   1_556  S
C264       C1210   1.479   1_556  S
C264        C265   1.407       .  A
C265        C266   1.415       .  A
C265        H269   1.079       .  S
C266        C267   1.415       .  A
C267        H270   1.078       .  S
C271       C1658   1.480       .  S
C271        C272   1.402       .  A
C271        C276   1.399       .  A
C272        C273   1.411       .  A
C272        H277   1.080       .  S
C273        C284   1.501       .  S
C273        C274   1.408       .  A
C274        C275   1.399       .  A
C274        H278   1.080       .  S
C275       C1098   1.474       .  S
C275        C276   1.398       .  A
C276        H279   1.084       .  S
C280        C846   1.485   1_655  S
C280        C281   1.402   1_655  A
C280        C285   1.406       .  A
C281        C282   1.397   1_455  A
C281        H286   1.084       .  S
C282        C525   1.471   1_655  S
C282        C283   1.396       .  A
C283        C284   1.408       .  A
C283        H287   1.080       .  S
C284        C285   1.412       .  A
C285        H288   1.080       .  S
O289       Cu297   1.998       .  S
O289        C299   1.276       .  A
O290       Cu297   1.991       .  S
O290        C300   1.276       .  A
O291       Cu297   2.000       .  S
O291        C301   1.278       .  A
O292       Cu297   1.995       .  S
O292        C302   1.276       .  A
O293       Cu298   2.009       .  S
O293        C302   1.279       .  A
O294       Cu298   2.006       .  S
O294        C301   1.277       .  A
O295       Cu298   2.004       .  S
O295        C300   1.278       .  A
O296       Cu298   2.005       .  S
O296        C299   1.278       .  A
Cu297      Cu298   2.368       .  S
C299        C594   1.481       .  S
C300        C510   1.482       .  S
C301        C678   1.483       .  S
C302        C538   1.484       .  S
C303       C1714   1.475       .  S
C303        C304   1.396       .  A
C303        C308   1.398       .  A
C304        C305   1.401       .  A
C304        H309   1.084       .  S
C305       C1434   1.481       .  S
C305        C306   1.403       .  A
C306        C307   1.409       .  A
C306        H310   1.080       .  S
C307        C316   1.500       .  S
C307        C308   1.412       .  A
C308        H311   1.080       .  S
C312        C469   1.476   1_655  S
C312        C313   1.398   1_655  A
C312        C317   1.403       .  A
C313        C314   1.396   1_455  A
C313        H318   1.084       .  S
C314        C497   1.471   1_655  S
C314        C315   1.397       .  A
C315        C316   1.407       .  A
C315        H319   1.080       .  S
C316        C317   1.413       .  A
C317        H320   1.080       .  S
O321       Cu329   2.007       .  S
O321        C331   1.278       .  A
O322       Cu329   2.004       .  S
O322        C332   1.278       .  A
O323       Cu329   2.009       .  S
O323        C333   1.277       .  A
O324       Cu329   2.006       .  S
O324        C334   1.277       .  A
O325       Cu330   2.003       .  S
O325        C334   1.278       .  A
O326       Cu330   2.007       .  S
O326        C333   1.277       .  A
O327       Cu330   2.006       .  S
O327        C332   1.277       .  A
O328       Cu330   1.996       .  S
O328        C331   1.277       .  A
Cu329      Cu330   2.369       .  S
C331        C482   1.479       .  S
C332       C1337   1.487       .  S
C333        C454   1.471       .  S
C334       C1014   1.488       .  S
C335       C1490   1.467       .  S
C335        C336   1.392       .  A
C335        C340   1.398       .  A
C336        C337   1.395       .  A
C336        H341   1.084       .  S
C337        C721   1.479       .  S
C337        C338   1.405       .  A
C338        C339   1.415       .  A
C338        H342   1.080       .  S
C339        C348   1.501       .  S
C339        C340   1.410       .  A
C340        H343   1.081       .  S
C344        C413   1.485       .  S
C344        C345   1.402       .  A
C344        C349   1.403       .  A
C345        C346   1.400       .  A
C345        H350   1.083   1_655  S
C346        C441   1.486       .  S
C346        C347   1.402       .  A
C347        C348   1.412       .  A
C347        H351   1.080       .  S
C348        C349   1.409       .  A
C349        H352   1.080       .  S
C353       C1057   1.477       .  S
C353        C354   1.401       .  A
C353        C358   1.399       .  A
C354        C355   1.412       .  A
C354        H359   1.079       .  S
C355        C366   1.504       .  S
C355        C356   1.411       .  A
C356        C357   1.400       .  A
C356        H360   1.080       .  S
C357        C749   1.476       .  S
C357        C358   1.399       .  A
C358        H361   1.084       .  S
C362        C385   1.483   1_655  S
C362        C363   1.399   1_655  A
C362        C367   1.403       .  A
C363        C364   1.398   1_455  A
C363        H368   1.084       .  S
C364        C861   1.476   1_655  S
C364        C365   1.400       .  A
C365        C366   1.411       .  A
C365        H369   1.079       .  S
C366        C367   1.412       .  A
C367        H370   1.079       .  S
O371       Cu379   1.997       .  S
O371        C381   1.277       .  A
O372       Cu379   2.001       .  S
O372        C382   1.277       .  A
O373       Cu379   2.014       .  S
O373        C383   1.280       .  A
O374       Cu379   2.018       .  S
O374        C384   1.279       .  A
O375       Cu380   1.995       .  S
O375        C384   1.277       .  A
O376       Cu380   1.998       .  S
O376        C383   1.276       .  A
O377       Cu380   2.005       .  S
O377        C382   1.278       .  A
O378       Cu380   2.003       .  S
O378        C381   1.277       .  A
Cu379      Cu380   2.368       .  S
C381        C566   1.479       .  S
C382        C426   1.479       .  S
C383        C622   1.490       .  S
C384        C398   1.488       .  S
C385        C386   1.410       .  A
C385        C390   1.404   1_455  A
C386        C387   1.404       .  A
C386        N391   1.432       .  S
C387        C388   1.404       .  A
C387        H392   1.084       .  S
C388        C393   1.481       .  S
C388        C389   1.410       .  A
C389        C390   1.402   1_455  A
C389        N394   1.438       .  S
C390        H395   1.084       .  S
N391        H411   1.046       .  S
N391        H412   1.045       .  S
C393        C396   1.402       .  A
C393        C400   1.407       .  A
N394        H409   1.046   1_455  S
N394        H410   1.046       .  S
C396        C397   1.407       .  A
C396        H401   1.084       .  S
C397        C398   1.417       .  A
C397        N402   1.438       .  S
C398        C399   1.408       .  A
C399        C400   1.402       .  A
C399        H403   1.083       .  S
C400        N404   1.438       .  S
N402        H405   1.046       .  S
N402        H406   1.045       .  S
N404        H407   1.046       .  S
N404        H408   1.045       .  S
C413        C414   1.414   1_655  A
C413        C418   1.406       .  A
C414        C415   1.405       .  A
C414        N419   1.437       .  S
C415        C416   1.400       .  A
C415        H420   1.084       .  S
C416        C421   1.474       .  S
C416        C417   1.406   1_455  A
C417        C418   1.401       .  A
C417        N422   1.438       .  S
C418        H423   1.084       .  S
N419        H439   1.045       .  S
N419        H440   1.046       .  S
C421        C424   1.400       .  A
C421        C428   1.406       .  A
N422        H437   1.045       .  S
N422        H438   1.046       .  S
C424        C425   1.403       .  A
C424        H429   1.084       .  S
C425        C426   1.414       .  A
C425        N430   1.438       .  S
C426        C427   1.407       .  A
C427        C428   1.405       .  A
C427        H431   1.084       .  S
C428        N432   1.437       .  S
N430        H433   1.045       .  S
N430        H434   1.046       .  S
N432        H435   1.046       .  S
N432        H436   1.046       .  S
C441        C442   1.414       .  A
C441        C446   1.404   1_655  A
C442        C443   1.405   1_655  A
C442        N447   1.438       .  S
C443        C444   1.404       .  A
C443        H448   1.084       .  S
C444        C449   1.487       .  S
C444        C445   1.412       .  A
C445        C446   1.404       .  A
C445        N450   1.438       .  S
C446        H451   1.083       .  S
N447        H467   1.046       .  S
N447        H468   1.045       .  S
C449        C452   1.404       .  A
C449        C456   1.414       .  A
N450        H465   1.046       .  S
N450        H466   1.046       .  S
C452        C453   1.404       .  A
C452        H457   1.084       .  S
C453        C454   1.409       .  A
C453        N458   1.438       .  S
C454        C455   1.400       .  A
C455        C456   1.406       .  A
C455        H459   1.084       .  S
C456        N460   1.438       .  S
N458        H461   1.046       .  S
N458        H462   1.046       .  S
N460        H463   1.046       .  S
N460        H464   1.046       .  S
C469        C470   1.410       .  A
C469        C474   1.402       .  A
C470        C471   1.403       .  A
C470        N475   1.438       .  S
C471        C472   1.403       .  A
C471        H476   1.084       .  S
C472        C477   1.480       .  S
C472        C473   1.411       .  A
C473        C474   1.404       .  A
C473        N478   1.438       .  S
C474        H479   1.084   1_455  S
N475        H495   1.046       .  S
N475        H496   1.046       .  S
C477        C480   1.402       .  A
C477        C484   1.409       .  A
N478        H493   1.046       .  S
N478        H494   1.046       .  S
C480        C481   1.404       .  A
C480        H485   1.084       .  S
C481        C482   1.413       .  A
C481        N486   1.438       .  S
C482        C483   1.405       .  A
C483        C484   1.403       .  A
C483        H487   1.084       .  S
C484        N488   1.438       .  S
N486        H489   1.046       .  S
N486        H490   1.046       .  S
N488        H491   1.046       .  S
N488        H492   1.046       .  S
C497        C498   1.412   1_455  A
C497        C502   1.401       .  A
C498        C499   1.400   1_655  A
C498        N503   1.439       .  S
C499        C500   1.400       .  A
C499        H504   1.084       .  S
C500        C505   1.470       .  S
C500        C501   1.408       .  A
C501        C502   1.402       .  A
C501        N506   1.437       .  S
C502        H507   1.084       .  S
N503        H523   1.046       .  S
N503        H524   1.046       .  S
C505        C508   1.397       .  A
C505        C512   1.405       .  A
N506        H521   1.045       .  S
N506        H522   1.046       .  S
C508        C509   1.401       .  A
C508        H513   1.084       .  S
C509        C510   1.418       .  A
C509        N514   1.438       .  S
C510        C511   1.408       .  A
C511        C512   1.402       .  A
C511        H515   1.083       .  S
C512        N516   1.438       .  S
N514        H517   1.048       .  S
N514        H518   1.044       .  S
N516        H519   1.045       .  S
N516        H520   1.046       .  S
C525        C526   1.409       .  A
C525        C530   1.400       .  A
C526        C527   1.400       .  A
C526        N531   1.438   1_455  S
C527        C528   1.402       .  A
C527        H532   1.084       .  S
C528        C533   1.480       .  S
C528        C529   1.412       .  A
C529        C530   1.405       .  A
C529        N534   1.438       .  S
C530        H535   1.084       .  S
N531        H551   1.046   1_655  S
N531        H552   1.046       .  S
C533        C536   1.400       .  A
C533        C540   1.409       .  A
N534        H549   1.046       .  S
N534        H550   1.046       .  S
C536        C537   1.402       .  A
C536        H541   1.084       .  S
C537        C538   1.417       .  A
C537        N542   1.438       .  S
C538        C539   1.407       .  A
C539        C540   1.404       .  A
C539        H543   1.083       .  S
C540        N544   1.438       .  S
N542        H545   1.046       .  S
N542        H546   1.046       .  S
N544        H547   1.046   1_455  S
N544        H548   1.046   1_455  S
C553        C554   1.410   1_554  A
C553        C558   1.403       .  A
C554        C555   1.401   1_556  A
C554        N559   1.438       .  S
C555        C556   1.402       .  A
C555        H560   1.084       .  S
C556        C561   1.480       .  S
C556        C557   1.411       .  A
C557        C558   1.406       .  A
C557        N562   1.438       .  S
C558        H563   1.084       .  S
N559        H579   1.046       .  S
N559        H580   1.046       .  S
C561        C564   1.403       .  A
C561        C568   1.409       .  A
N562        H577   1.045       .  S
N562        H578   1.046       .  S
C564        C565   1.405       .  A
C564        H569   1.084       .  S
C565        C566   1.414       .  A
C565        N570   1.438       .  S
C566        C567   1.405       .  A
C567        C568   1.401       .  A
C567        H571   1.084       .  S
C568        N572   1.438       .  S
N570        H573   1.046       .  S
N570        H574   1.046       .  S
N572        H575   1.046   1_554  S
N572        H576   1.045   1_554  S
C581        C582   1.412       .  A
C581        C586   1.402       .  A
C582        C583   1.403       .  A
C582        N587   1.438       .  S
C583        C584   1.402       .  A
C583        H588   1.084       .  S
C584        C589   1.480       .  S
C584        C585   1.410       .  A
C585        C586   1.405       .  A
C585        N590   1.437       .  S
C586        H591   1.084       .  S
N587        H607   1.046       .  S
N587        H608   1.046       .  S
C589        C592   1.401       .  A
C589        C596   1.408       .  A
N590        H605   1.045       .  S
N590        H606   1.046       .  S
C592        C593   1.405       .  A
C592        H597   1.084       .  S
C593        C594   1.416       .  A
C593        N598   1.438       .  S
C594        C595   1.405       .  A
C595        C596   1.403       .  A
C595        H599   1.084       .  S
C596        N600   1.438       .  S
N598        H601   1.046       .  S
N598        H602   1.045       .  S
N600        H603   1.046       .  S
N600        H604   1.045       .  S
C609        C610   1.412       .  A
C609        C614   1.404       .  A
C610        C611   1.405       .  A
C610        N615   1.438   1_554  S
C611        C612   1.401       .  A
C611        H616   1.084       .  S
C612        C617   1.476       .  S
C612        C613   1.407       .  A
C613        C614   1.404       .  A
C613        N618   1.437       .  S
C614        H619   1.084       .  S
N615        H635   1.046       .  S
N615        H636   1.045       .  S
C617        C620   1.397       .  A
C617        C624   1.405       .  A
N618        H633   1.046       .  S
N618        H634   1.046       .  S
C620        C621   1.405       .  A
C620        H625   1.084       .  S
C621        C622   1.421       .  A
C621        N626   1.438       .  S
C622        C623   1.409       .  A
C623        C624   1.405       .  A
C623        H627   1.083       .  S
C624        N628   1.438       .  S
N626        H629   1.046       .  S
N626        H630   1.045       .  S
N628        H631   1.046       .  S
N628        H632   1.046       .  S
C637        C638   1.415       .  A
C637        C642   1.406       .  A
C638        C639   1.401       .  A
C638        N643   1.439       .  S
C639        C640   1.400       .  A
C639        H644   1.084       .  S
C640        C645   1.481       .  S
C640        C641   1.410       .  A
C641        C642   1.407       .  A
C641        N646   1.437       .  S
C642        H647   1.083       .  S
N643        H663   1.046       .  S
N643        H664   1.046       .  S
C645        C648   1.404       .  A
C645        C652   1.410       .  A
N646        H661   1.046   1_554  S
N646        H662   1.045   1_554  S
C648        C649   1.408       .  A
C648        H653   1.084       .  S
C649        C650   1.412       .  A
C649        N654   1.437   1_554  S
C650        C651   1.402       .  A
C651        C652   1.400       .  A
C651        H655   1.084       .  S
C652        N656   1.438       .  S
N654        H657   1.046       .  S
N654        H658   1.045       .  S
N656        H659   1.045       .  S
N656        H660   1.046       .  S
C665        C666   1.408       .  A
C665        C670   1.402       .  A
C666        C667   1.398       .  A
C666        N671   1.433       .  S
C667        C668   1.400       .  A
C667        H672   1.084       .  S
C668        C673   1.476       .  S
C668        C669   1.411       .  A
C669        C670   1.406       .  A
C669        N674   1.437       .  S
C670        H675   1.084       .  S
N671        H691   1.046       .  S
N671        H692   1.045       .  S
C673        C676   1.400       .  A
C673        C680   1.406       .  A
N674        H689   1.046       .  S
N674        H690   1.045       .  S
C676        C677   1.406       .  A
C676        H681   1.084       .  S
C677        C678   1.417       .  A
C677        N682   1.438       .  S
C678        C679   1.406       .  A
C679        C680   1.402       .  A
C679        H683   1.084       .  S
C680        N684   1.438       .  S
N682        H685   1.047       .  S
N682        H686   1.044       .  S
N684        H687   1.045       .  S
N684        H688   1.046       .  S
C693        C694   1.417   1_554  A
C693        C698   1.406       .  A
C694        C695   1.401   1_556  A
C694        N699   1.439       .  S
C695        C696   1.398       .  A
C695        H700   1.084       .  S
C696        C701   1.476       .  S
C696        C697   1.408       .  A
C697        C698   1.407       .  A
C697        N702   1.437       .  S
C698        H703   1.083       .  S
N699        H719   1.046       .  S
N699        H720   1.046       .  S
C701        C704   1.399       .  A
C701        C708   1.405       .  A
N702        H717   1.046       .  S
N702        H718   1.046       .  S
C704        C705   1.406       .  A
C704        H709   1.084       .  S
C705        C706   1.420       .  A
C705        N710   1.438       .  S
C706        C707   1.409       .  A
C707        C708   1.403       .  A
C707        H711   1.083       .  S
C708        N712   1.438       .  S
N710        H713   1.046       .  S
N710        H714   1.046       .  S
N712        H715   1.045       .  S
N712        H716   1.046       .  S
C721        C722   1.413       .  A
C721        C726   1.403       .  A
C722        C723   1.397       .  A
C722        N727   1.433       .  S
C723        C724   1.398       .  A
C723        H728   1.084       .  S
C724        C729   1.474       .  S
C724        C725   1.410       .  A
C725        C726   1.404       .  A
C725        N730   1.438       .  S
C726        H731   1.084       .  S
N727        H747   1.046       .  S
N727        H748   1.045       .  S
C729        C732   1.398       .  A
C729        C736   1.406       .  A
N730        H745   1.045       .  S
N730        H746   1.046       .  S
C732        C733   1.401       .  A
C732        H737   1.084       .  S
C733        C734   1.418       .  A
C733        N738   1.438       .  S
C734        C735   1.408       .  A
C735        C736   1.403       .  A
C735        H739   1.083       .  S
C736        N740   1.438       .  S
N738        H741   1.046       .  S
N738        H742   1.046       .  S
N740        H743   1.046       .  S
N740        H744   1.046       .  S
C749        C750   1.410       .  A
C749        C754   1.402       .  A
C750        C751   1.404       .  A
C750        N755   1.438       .  S
C751        C752   1.401       .  A
C751        H756   1.084       .  S
C752        C757   1.477       .  S
C752        C753   1.410       .  A
C753        C754   1.404       .  A
C753        N758   1.438       .  S
C754        H759   1.084       .  S
N755        H775   1.045       .  S
N755        H776   1.046       .  S
C757        C760   1.398       .  A
C757        C764   1.407       .  A
N758        H773   1.046       .  S
N758        H774   1.046       .  S
C760        C761   1.403       .  A
C760        H765   1.084       .  S
C761        C762   1.419       .  A
C761        N766   1.438       .  S
C762        C763   1.408       .  A
C763        C764   1.405       .  A
C763        H767   1.083       .  S
C764        N768   1.438       .  S
N766        H769   1.046       .  S
N766        H770   1.046       .  S
N768        H771   1.046       .  S
N768        H772   1.045       .  S
C777        C778   1.418       .  A
C777        C782   1.408       .  A
C778        C779   1.405       .  A
C778        N783   1.438       .  S
C779        C780   1.399       .  A
C779        H784   1.084       .  S
C780        C785   1.474       .  S
C780        C781   1.405       .  A
C781        C782   1.402       .  A
C781        N786   1.438       .  S
C782        H787   1.083       .  S
N783        H803   1.045       .  S
N783        H804   1.046       .  S
C785        C788   1.400       .  A
C785        C792   1.408       .  A
N786        H801   1.045       .  S
N786        H802   1.046       .  S
C788        C789   1.403       .  A
C788        H793   1.084       .  S
C789        C790   1.411       .  A
C789        N794   1.438   1_554  S
C790        C791   1.403       .  A
C791        C792   1.404       .  A
C791        H795   1.084       .  S
C792        N796   1.438       .  S
N794        H797   1.045       .  S
N794        H798   1.046       .  S
N796        H799   1.046       .  S
N796        H800   1.046       .  S
C805        C806   1.412   1_556  A
C805        C810   1.405       .  A
C806        C807   1.405       .  A
C806        N811   1.437       .  S
C807        C808   1.401       .  A
C807        H812   1.084       .  S
C808        C813   1.472       .  S
C808        C809   1.406       .  A
C809        C810   1.400   1_554  A
C809        N814   1.438   1_554  S
C810        H815   1.084       .  S
N811        H831   1.045       .  S
N811        H832   1.046       .  S
C813        C816   1.398       .  A
C813        C820   1.405       .  A
N814        H829   1.045       .  S
N814        H830   1.046   1_556  S
C816        C817   1.404       .  A
C816        H821   1.084       .  S
C817        C818   1.420       .  A
C817        N822   1.438       .  S
C818        C819   1.408       .  A
C819        C820   1.402       .  A
C819        H823   1.083       .  S
C820        N824   1.438       .  S
N822        H825   1.046       .  S
N822        H826   1.046       .  S
N824        H827   1.045       .  S
N824        H828   1.046       .  S
C833        C834   1.420       .  A
C833        C838   1.407       .  A
C834        C835   1.406       .  A
C834        N839   1.438       .  S
C835        C836   1.401       .  A
C835        H840   1.084       .  S
C836        C841   1.489       .  S
C836        C837   1.411       .  A
C837        C838   1.407       .  A
C837        N842   1.438       .  S
C838        H843   1.083       .  S
N839        H859   1.046       .  S
N839        H860   1.046       .  S
C841        C844   1.403       .  A
C841        C848   1.413       .  A
N842        H857   1.045       .  S
N842        H858   1.046       .  S
C844        C845   1.404   1_455  A
C844        H849   1.084       .  S
C845        C846   1.414   1_655  A
C845        N850   1.438       .  S
C846        C847   1.404       .  A
C847        C848   1.406       .  A
C847        H851   1.084       .  S
C848        N852   1.438       .  S
N850        H853   1.046       .  S
N850        H854   1.045       .  S
N852        H855   1.046       .  S
N852        H856   1.045       .  S
C861        C862   1.410       .  A
C861        C866   1.402       .  A
C862        C863   1.403       .  A
C862        N867   1.438       .  S
C863        C864   1.402       .  A
C863        H868   1.084       .  S
C864        C869   1.479       .  S
C864        C865   1.410       .  A
C865        C866   1.404       .  A
C865        N870   1.438       .  S
C866        H871   1.084   1_455  S
N867        H887   1.046       .  S
N867        H888   1.045       .  S
C869        C872   1.400       .  A
C869        C876   1.408       .  A
N870        H885   1.045       .  S
N870        H886   1.046       .  S
C872        C873   1.404       .  A
C872        H877   1.084       .  S
C873        C874   1.416       .  A
C873        N878   1.438       .  S
C874        C875   1.407       .  A
C875        C876   1.404       .  A
C875        H879   1.083       .  S
C876        N880   1.438       .  S
N878        H881   1.046       .  S
N878        H882   1.046       .  S
N880        H883   1.046       .  S
N880        H884   1.046       .  S
C889        C890   1.417       .  A
C889        C894   1.406       .  A
C890        C891   1.403       .  A
C890        N895   1.438       .  S
C891        C892   1.401       .  A
C891        H896   1.084       .  S
C892        C897   1.480       .  S
C892        C893   1.408       .  A
C893        C894   1.403       .  A
C893        N898   1.438       .  S
C894        H899   1.083       .  S
N895        H915   1.046       .  S
N895        H916   1.046       .  S
C897        C900   1.404       .  A
C897        C904   1.410       .  A
N898        H913   1.045       .  S
N898        H914   1.046       .  S
C900        C901   1.405       .  A
C900        H905   1.084       .  S
C901        C902   1.410       .  A
C901        N906   1.437       .  S
C902        C903   1.403       .  A
C903        C904   1.401       .  A
C903        H907   1.084       .  S
C904        N908   1.438       .  S
N906        H909   1.045       .  S
N906        H910   1.046       .  S
N908        H911   1.046       .  S
N908        H912   1.046       .  S
C917        C918   1.419       .  A
C917        C922   1.409       .  A
C918        C919   1.406       .  A
C918        N923   1.438       .  S
C919        C920   1.400       .  A
C919        H924   1.084       .  S
C920        C925   1.484       .  S
C920        C921   1.408       .  A
C921        C922   1.408       .  A
C921        N926   1.438       .  S
C922        H927   1.083       .  S
N923        H943   1.046       .  S
N923        H944   1.046       .  S
C925        C928   1.403       .  A
C925        C932   1.410       .  A
N926        H941   1.046       .  S
N926        H942   1.046       .  S
C928        C929   1.407       .  A
C928        H933   1.084       .  S
C929        C930   1.411       .  A
C929        N934   1.438       .  S
C930        C931   1.404       .  A
C931        C932   1.407       .  A
C931        H935   1.084       .  S
C932        N936   1.438       .  S
N934        H937   1.046       .  S
N934        H938   1.044       .  S
N936        H939   1.045       .  S
N936        H940   1.046       .  S
C945        C946   1.413       .  A
C945        C950   1.407       .  A
C946        C947   1.400       .  A
C946        N951   1.438       .  S
C947        C948   1.401       .  A
C947        H952   1.084       .  S
C948        C953   1.477       .  S
C948        C949   1.408       .  A
C949        C950   1.405       .  A
C949        N954   1.438       .  S
C950        H955   1.083       .  S
N951        H971   1.045       .  S
N951        H972   1.046       .  S
C953        C956   1.404       .  A
C953        C960   1.409       .  A
N954        H969   1.046       .  S
N954        H970   1.046       .  S
C956        C957   1.406       .  A
C956        H961   1.084       .  S
C957        C958   1.409       .  A
C957        N962   1.437       .  S
C958        C959   1.401       .  A
C959        C960   1.397       .  A
C959        H963   1.084       .  S
C960        N964   1.438       .  S
N962        H965   1.045       .  S
N962        H966   1.046       .  S
N964        H967   1.046       .  S
N964        H968   1.046       .  S
C973        C974   1.411       .  A
C973        C978   1.403       .  A
C974        C975   1.405       .  A
C974        N979   1.438       .  S
C975        C976   1.405       .  A
C975        H980   1.083       .  S
C976        C981   1.486       .  S
C976        C977   1.412       .  A
C977        C978   1.402       .  A
C977        N982   1.438       .  S
C978        H983   1.084       .  S
N979        H999   1.046       .  S
N979       H1000   1.045       .  S
C981        C984   1.405       .  A
C981        C988   1.414       .  A
N982        H997   1.046       .  S
N982        H998   1.045       .  S
C984        C985   1.403       .  A
C984        H989   1.083       .  S
C985        C986   1.408       .  A
C985        N990   1.438       .  S
C986        C987   1.399       .  A
C987        C988   1.404       .  A
C987        H991   1.084       .  S
C988        N992   1.438       .  S
N990        H993   1.046       .  S
N990        H994   1.045       .  S
N992        H995   1.046       .  S
N992        H996   1.045       .  S
C1001      C1002   1.415       .  A
C1001      C1006   1.404       .  A
C1002      C1003   1.404       .  A
C1002      N1007   1.438       .  S
C1003      C1004   1.400       .  A
C1003      H1008   1.084       .  S
C1004      C1009   1.478       .  S
C1004      C1005   1.408       .  A
C1005      C1006   1.404       .  A
C1005      N1010   1.438       .  S
C1006      H1011   1.083       .  S
N1007      H1027   1.046       .  S
N1007      H1028   1.045       .  S
C1009      C1012   1.399       .  A
C1009      C1016   1.406       .  A
N1010      H1025   1.045       .  S
N1010      H1026   1.046       .  S
C1012      C1013   1.405       .  A
C1012      H1017   1.084       .  S
C1013      C1014   1.419       .  A
C1013      N1018   1.438       .  S
C1014      C1015   1.409       .  A
C1015      C1016   1.403       .  A
C1015      H1019   1.083       .  S
C1016      N1020   1.438       .  S
N1018      H1021   1.046       .  S
N1018      H1022   1.045       .  S
N1020      H1023   1.046       .  S
N1020      H1024   1.046       .  S
C1029      C1030   1.415       .  A
C1029      C1034   1.405       .  A
C1030      C1031   1.404       .  A
C1030      N1035   1.438       .  S
C1031      C1032   1.401       .  A
C1031      H1036   1.084       .  S
C1032      C1037   1.481       .  S
C1032      C1033   1.409       .  A
C1033      C1034   1.405       .  A
C1033      N1038   1.438       .  S
C1034      H1039   1.084       .  S
N1035      H1055   1.045       .  S
N1035      H1056   1.046       .  S
C1037      C1040   1.404       .  A
C1037      C1044   1.410       .  A
N1038      H1053   1.045       .  S
N1038      H1054   1.046       .  S
C1040      C1041   1.405       .  A
C1040      H1045   1.084       .  S
C1041      C1042   1.410       .  A
C1041      N1046   1.438       .  S
C1042      C1043   1.402       .  A
C1043      C1044   1.403       .  A
C1043      H1047   1.084       .  S
C1044      N1048   1.438       .  S
N1046      H1049   1.046       .  S
N1046      H1050   1.046       .  S
N1048      H1051   1.046       .  S
N1048      H1052   1.046       .  S
C1057      C1058   1.410       .  A
C1057      C1062   1.404       .  A
C1058      C1059   1.405       .  A
C1058      N1063   1.437       .  S
C1059      C1060   1.401       .  A
C1059      H1064   1.084       .  S
C1060      C1065   1.472       .  S
C1060      C1061   1.407       .  A
C1061      C1062   1.402       .  A
C1061      N1066   1.438       .  S
C1062      H1067   1.084       .  S
N1063      H1083   1.046       .  S
N1063      H1084   1.045       .  S
C1065      C1068   1.398       .  A
C1065      C1072   1.405       .  A
N1066      H1081   1.045       .  S
N1066      H1082   1.046       .  S
C1068      C1069   1.404       .  A
C1068      H1073   1.084       .  S
C1069      C1070   1.419       .  A
C1069      N1074   1.438       .  S
C1070      C1071   1.408       .  A
C1071      C1072   1.402       .  A
C1071      H1075   1.083       .  S
C1072      N1076   1.438       .  S
N1074      H1077   1.045       .  S
N1074      H1078   1.046       .  S
N1076      H1079   1.046       .  S
N1076      H1080   1.046       .  S
C1085      C1086   1.414       .  A
C1085      C1090   1.404       .  A
C1086      C1087   1.402       .  A
C1086      N1091   1.438       .  S
C1087      C1088   1.401       .  A
C1087      H1092   1.084       .  S
C1088      C1093   1.479       .  S
C1088      C1089   1.410       .  A
C1089      C1090   1.403       .  A
C1089      N1094   1.438       .  S
C1090      H1095   1.084       .  S
N1091      H1111   1.046       .  S
N1091      H1112   1.046       .  S
C1093      C1096   1.402       .  A
C1093      C1100   1.411       .  A
N1094      H1109   1.046       .  S
N1094      H1110   1.045       .  S
C1096      C1097   1.402       .  A
C1096      H1101   1.084       .  S
C1097      C1098   1.410       .  A
C1097      N1102   1.438       .  S
C1098      C1099   1.401       .  A
C1099      C1100   1.402       .  A
C1099      H1103   1.084       .  S
C1100      N1104   1.438       .  S
N1102      H1105   1.046       .  S
N1102      H1106   1.045       .  S
N1104      H1107   1.045       .  S
N1104      H1108   1.046       .  S
C1113      C1114   1.416       .  A
C1113      C1118   1.407       .  A
C1114      C1115   1.402       .  A
C1114      N1119   1.438       .  S
C1115      C1116   1.400       .  A
C1115      H1120   1.084       .  S
C1116      C1121   1.475       .  S
C1116      C1117   1.407       .  A
C1117      C1118   1.402       .  A
C1117      N1122   1.438       .  S
C1118      H1123   1.083       .  S
N1119      H1139   1.045       .  S
N1119      H1140   1.046       .  S
C1121      C1124   1.401       .  A
C1121      C1128   1.409       .  A
N1122      H1137   1.046       .  S
N1122      H1138   1.046       .  S
C1124      C1125   1.400       .  A
C1124      H1129   1.084       .  S
C1125      C1126   1.410       .  A
C1125      N1130   1.438       .  S
C1126      C1127   1.401       .  A
C1127      C1128   1.403       .  A
C1127      H1131   1.084       .  S
C1128      N1132   1.437       .  S
N1130      H1133   1.046       .  S
N1130      H1134   1.046       .  S
N1132      H1135   1.046       .  S
N1132      H1136   1.046       .  S
C1141      C1142   1.411       .  A
C1141      C1146   1.404       .  A
C1142      C1143   1.401       .  A
C1142      N1147   1.438       .  S
C1143      C1144   1.401       .  A
C1143      H1148   1.084       .  S
C1144      C1149   1.478       .  S
C1144      C1145   1.410       .  A
C1145      C1146   1.406       .  A
C1145      N1150   1.437       .  S
C1146      H1151   1.084       .  S
N1147      H1167   1.046       .  S
N1147      H1168   1.046       .  S
C1149      C1152   1.402       .  A
C1149      C1156   1.408       .  A
N1150      H1165   1.046       .  S
N1150      H1166   1.046       .  S
C1152      C1153   1.406       .  A
C1152      H1157   1.084       .  S
C1153      C1154   1.413       .  A
C1153      N1158   1.438       .  S
C1154      C1155   1.404       .  A
C1155      C1156   1.401       .  A
C1155      H1159   1.084       .  S
C1156      N1160   1.438       .  S
N1158      H1161   1.046       .  S
N1158      H1162   1.046       .  S
N1160      H1163   1.046       .  S
N1160      H1164   1.046       .  S
C1169      C1170   1.418       .  A
C1169      C1174   1.408       .  A
C1170      C1171   1.405       .  A
C1170      N1175   1.438       .  S
C1171      C1172   1.399       .  A
C1171      H1176   1.084       .  S
C1172      C1177   1.474       .  S
C1172      C1173   1.405       .  A
C1173      C1174   1.404       .  A
C1173      N1178   1.438       .  S
C1174      H1179   1.083       .  S
N1175      H1195   1.046       .  S
N1175      H1196   1.045       .  S
C1177      C1180   1.400       .  A
C1177      C1184   1.407       .  A
N1178      H1193   1.045       .  S
N1178      H1194   1.045       .  S
C1180      C1181   1.406       .  A
C1180      H1185   1.084       .  S
C1181      C1182   1.413       .  A
C1181      N1186   1.438       .  S
C1182      C1183   1.405       .  A
C1183      C1184   1.403       .  A
C1183      H1187   1.084       .  S
C1184      N1188   1.438       .  S
N1186      H1189   1.045       .  S
N1186      H1190   1.046       .  S
N1188      H1191   1.045       .  S
N1188      H1192   1.045       .  S
C1197      C1198   1.413       .  A
C1197      C1202   1.405       .  A
C1198      C1199   1.408       .  A
C1198      N1203   1.438       .  S
C1199      C1200   1.405       .  A
C1199      H1204   1.083       .  S
C1200      C1205   1.488       .  S
C1200      C1201   1.411       .  A
C1201      C1202   1.403       .  A
C1201      N1206   1.438       .  S
C1202      H1207   1.084       .  S
N1203      H1223   1.046       .  S
N1203      H1224   1.046       .  S
C1205      C1208   1.404       .  A
C1205      C1212   1.413       .  A
N1206      H1221   1.045       .  S
N1206      H1222   1.046       .  S
C1208      C1209   1.400   1_554  A
C1208      H1213   1.084       .  S
C1209      C1210   1.406   1_556  A
C1209      N1214   1.432       .  S
C1210      C1211   1.404       .  A
C1211      C1212   1.408       .  A
C1211      H1215   1.084       .  S
C1212      N1216   1.437       .  S
N1214      H1217   1.045       .  S
N1214      H1218   1.046       .  S
N1216      H1219   1.046       .  S
N1216      H1220   1.045       .  S
C1225      C1226   1.413       .  A
C1225      C1230   1.406       .  A
C1226      C1227   1.407       .  A
C1226      N1231   1.438       .  S
C1227      C1228   1.405       .  A
C1227      H1232   1.083       .  S
C1228      C1233   1.490       .  S
C1228      C1229   1.411       .  A
C1229      C1230   1.405       .  A
C1229      N1234   1.438       .  S
C1230      H1235   1.084       .  S
N1231      H1251   1.045       .  S
N1231      H1252   1.046       .  S
C1233      C1236   1.406       .  A
C1233      C1240   1.413       .  A
N1234      H1249   1.046       .  S
N1234      H1250   1.045   1_554  S
C1236      C1237   1.406   1_554  A
C1236      H1241   1.083       .  S
C1237      C1238   1.409       .  A
C1237      N1242   1.438       .  S
C1238      C1239   1.402   1_556  A
C1239      C1240   1.405       .  A
C1239      H1243   1.084       .  S
C1240      N1244   1.438       .  S
N1242      H1245   1.045       .  S
N1242      H1246   1.046       .  S
N1244      H1247   1.046       .  S
N1244      H1248   1.045       .  S
C1253      C1254   1.419       .  A
C1253      C1258   1.408       .  A
C1254      C1255   1.404       .  A
C1254      N1259   1.438       .  S
C1255      C1256   1.399       .  A
C1255      H1260   1.084       .  S
C1256      C1261   1.483       .  S
C1256      C1257   1.409       .  A
C1257      C1258   1.409       .  A
C1257      N1262   1.438       .  S
C1258      H1263   1.083       .  S
N1259      H1279   1.046       .  S
N1259      H1280   1.046       .  S
C1261      C1264   1.402       .  A
C1261      C1268   1.410       .  A
N1262      H1277   1.045       .  S
N1262      H1278   1.046       .  S
C1264      C1265   1.406       .  A
C1264      H1269   1.084       .  S
C1265      C1266   1.413       .  A
C1265      N1270   1.438       .  S
C1266      C1267   1.403       .  A
C1267      C1268   1.404       .  A
C1267      H1271   1.084       .  S
C1268      N1272   1.438       .  S
N1270      H1273   1.046       .  S
N1270      H1274   1.046       .  S
N1272      H1275   1.046       .  S
N1272      H1276   1.045       .  S
C1281      C1282   1.421       .  A
C1281      C1286   1.409       .  A
C1282      C1283   1.407       .  A
C1282      N1287   1.438       .  S
C1283      C1284   1.399       .  A
C1283      H1288   1.084       .  S
C1284      C1289   1.485       .  S
C1284      C1285   1.408       .  A
C1285      C1286   1.408       .  A
C1285      N1290   1.437       .  S
C1286      H1291   1.083       .  S
N1287      H1307   1.046       .  S
N1287      H1308   1.046       .  S
C1289      C1292   1.402       .  A
C1289      C1296   1.409       .  A
N1290      H1305   1.045       .  S
N1290      H1306   1.046       .  S
C1292      C1293   1.407       .  A
C1292      H1297   1.084       .  S
C1293      C1294   1.414       .  A
C1293      N1298   1.438       .  S
C1294      C1295   1.407       .  A
C1295      C1296   1.407       .  A
C1295      H1299   1.083       .  S
C1296      N1300   1.437       .  S
N1298      H1301   1.046       .  S
N1298      H1302   1.046       .  S
N1300      H1303   1.046       .  S
N1300      H1304   1.045       .  S
C1309      C1310   1.414       .  A
C1309      C1314   1.406       .  A
C1310      C1311   1.406       .  A
C1310      N1315   1.438       .  S
C1311      C1312   1.403       .  A
C1311      H1316   1.084       .  S
C1312      C1317   1.485       .  S
C1312      C1313   1.411       .  A
C1313      C1314   1.405       .  A
C1313      N1318   1.438       .  S
C1314      H1319   1.084       .  S
N1315      H1335   1.046       .  S
N1315      H1336   1.046       .  S
C1317      C1320   1.402       .  A
C1317      C1324   1.413       .  A
N1318      H1333   1.046       .  S
N1318      H1334   1.045       .  S
C1320      C1321   1.402       .  A
C1320      H1325   1.084       .  S
C1321      C1322   1.412       .  A
C1321      N1326   1.438       .  S
C1322      C1323   1.402       .  A
C1323      C1324   1.407       .  A
C1323      H1327   1.084       .  S
C1324      N1328   1.438       .  S
N1326      H1329   1.046       .  S
N1326      H1330   1.045       .  S
N1328      H1331   1.046       .  S
N1328      H1332   1.046       .  S
C1337      C1338   1.418       .  A
C1337      C1342   1.406       .  A
C1338      C1339   1.406       .  A
C1338      N1343   1.438       .  S
C1339      C1340   1.401       .  A
C1339      H1344   1.084       .  S
C1340      C1345   1.482       .  S
C1340      C1341   1.409       .  A
C1341      C1342   1.403       .  A
C1341      N1346   1.438       .  S
C1342      H1347   1.083       .  S
N1343      H1363   1.046       .  S
N1343      H1364   1.046       .  S
C1345      C1348   1.403       .  A
C1345      C1352   1.412       .  A
N1346      H1361   1.045       .  S
N1346      H1362   1.046       .  S
C1348      C1349   1.402       .  A
C1348      H1353   1.084       .  S
C1349      C1350   1.409       .  A
C1349      N1354   1.438       .  S
C1350      C1351   1.402       .  A
C1351      C1352   1.405       .  A
C1351      H1355   1.084       .  S
C1352      N1356   1.438       .  S
N1354      H1357   1.046       .  S
N1354      H1358   1.046       .  S
N1356      H1359   1.046       .  S
N1356      H1360   1.045       .  S
C1365      C1366   1.413       .  A
C1365      C1370   1.403       .  A
C1366      C1367   1.408       .  A
C1366      N1371   1.437       .  S
C1367      C1368   1.405       .  A
C1367      H1372   1.084       .  S
C1368      C1373   1.486       .  S
C1368      C1369   1.412       .  A
C1369      C1370   1.401       .  A
C1369      N1374   1.439       .  S
C1370      H1375   1.084       .  S
N1371      H1391   1.045       .  S
N1371      H1392   1.046       .  S
C1373      C1376   1.403       .  A
C1373      C1380   1.411       .  A
N1374      H1389   1.045       .  S
N1374      H1390   1.046       .  S
C1376      C1377   1.404       .  A
C1376      H1381   1.084       .  S
C1377      C1378   1.414       .  A
C1377      N1382   1.438       .  S
C1378      C1379   1.406       .  A
C1379      C1380   1.405       .  A
C1379      H1383   1.084       .  S
C1380      N1384   1.438       .  S
N1382      H1385   1.046       .  S
N1382      H1386   1.046       .  S
N1384      H1387   1.046       .  S
N1384      H1388   1.045       .  S
C1393      C1394   1.412       .  A
C1393      C1398   1.403       .  A
C1394      C1395   1.404       .  A
C1394      N1399   1.438       .  S
C1395      C1396   1.401       .  A
C1395      H1400   1.084       .  S
C1396      C1401   1.479       .  S
C1396      C1397   1.410       .  A
C1397      C1398   1.405       .  A
C1397      N1402   1.438       .  S
C1398      H1403   1.084       .  S
N1399      H1419   1.046       .  S
N1399      H1420   1.045       .  S
C1401      C1404   1.399       .  A
C1401      C1408   1.409       .  A
N1402      H1417   1.046       .  S
N1402      H1418   1.046       .  S
C1404      C1405   1.403       .  A
C1404      H1409   1.084       .  S
C1405      C1406   1.416       .  A
C1405      N1410   1.437       .  S
C1406      C1407   1.406       .  A
C1407      C1408   1.406       .  A
C1407      H1411   1.083       .  S
C1408      N1412   1.438       .  S
N1410      H1413   1.046       .  S
N1410      H1414   1.044       .  S
N1412      H1415   1.045       .  S
N1412      H1416   1.046       .  S
C1421      C1422   1.418       .  A
C1421      C1426   1.409       .  A
C1422      C1423   1.404       .  A
C1422      N1427   1.438       .  S
C1423      C1424   1.398       .  A
C1423      H1428   1.084       .  S
C1424      C1429   1.472       .  S
C1424      C1425   1.404       .  A
C1425      C1426   1.403       .  A
C1425      N1430   1.438       .  S
C1426      H1431   1.083       .  S
N1427      H1447   1.046       .  S
N1427      H1448   1.046       .  S
C1429      C1432   1.399       .  A
C1429      C1436   1.406       .  A
N1430      H1445   1.045       .  S
N1430      H1446   1.046       .  S
C1432      C1433   1.402       .  A
C1432      H1437   1.084       .  S
C1433      C1434   1.415       .  A
C1433      N1438   1.439       .  S
C1434      C1435   1.405       .  A
C1435      C1436   1.403       .  A
C1435      H1439   1.084       .  S
C1436      N1440   1.437       .  S
N1438      H1441   1.046       .  S
N1438      H1442   1.045       .  S
N1440      H1443   1.046       .  S
N1440      H1444   1.046       .  S
C1449      C1450   1.412       .  A
C1449      C1454   1.405       .  A
C1450      C1451   1.402       .  A
C1450      N1455   1.437       .  S
C1451      C1452   1.403       .  A
C1451      H1456   1.084       .  S
C1452      C1457   1.482       .  S
C1452      C1453   1.410       .  A
C1453      C1454   1.402       .  A
C1453      N1458   1.438       .  S
C1454      H1459   1.084       .  S
N1455      H1475   1.045       .  S
N1455      H1476   1.045       .  S
C1457      C1460   1.404       .  A
C1457      C1464   1.411       .  A
N1458      H1473   1.046       .  S
N1458      H1474   1.046       .  S
C1460      C1461   1.402       .  A
C1460      H1465   1.084       .  S
C1461      C1462   1.409       .  A
C1461      N1466   1.438       .  S
C1462      C1463   1.402       .  A
C1463      C1464   1.403       .  A
C1463      H1467   1.084       .  S
C1464      N1468   1.438       .  S
N1466      H1469   1.046       .  S
N1466      H1470   1.045       .  S
N1468      H1471   1.046       .  S
N1468      H1472   1.046       .  S
C1477      C1478   1.416       .  A
C1477      C1482   1.407       .  A
C1478      C1479   1.402       .  A
C1478      N1483   1.438       .  S
C1479      C1480   1.399       .  A
C1479      H1484   1.084       .  S
C1480      C1485   1.471       .  S
C1480      C1481   1.406       .  A
C1481      C1482   1.400       .  A
C1481      N1486   1.438       .  S
C1482      H1487   1.083       .  S
N1483      H1503   1.046       .  S
N1483      H1504   1.046       .  S
C1485      C1488   1.401       .  A
C1485      C1492   1.408       .  A
N1486      H1501   1.046       .  S
N1486      H1502   1.046       .  S
C1488      C1489   1.399       .  A
C1488      H1493   1.084       .  S
C1489      C1490   1.408       .  A
C1489      N1494   1.438       .  S
C1490      C1491   1.401       .  A
C1491      C1492   1.402       .  A
C1491      H1495   1.084       .  S
C1492      N1496   1.437       .  S
N1494      H1497   1.046       .  S
N1494      H1498   1.046       .  S
N1496      H1499   1.046       .  S
N1496      H1500   1.046       .  S
C1505      C1506   1.412       .  A
C1505      C1510   1.406       .  A
C1506      C1507   1.400       .  A
C1506      N1511   1.433       .  S
C1507      C1508   1.403       .  A
C1507      H1512   1.083       .  S
C1508      C1513   1.483       .  S
C1508      C1509   1.411       .  A
C1509      C1510   1.402       .  A
C1509      N1514   1.438       .  S
C1510      H1515   1.083       .  S
N1511      H1531   1.046       .  S
N1511      H1532   1.046       .  S
C1513      C1516   1.406       .  A
C1513      C1520   1.413       .  A
N1514      H1529   1.046       .  S
N1514      H1530   1.046       .  S
C1516      C1517   1.402       .  A
C1516      H1521   1.083       .  S
C1517      C1518   1.406       .  A
C1517      N1522   1.438       .  S
C1518      C1519   1.400       .  A
C1519      C1520   1.401       .  A
C1519      H1523   1.084       .  S
C1520      N1524   1.438       .  S
N1522      H1525   1.046       .  S
N1522      H1526   1.046       .  S
N1524      H1527   1.046       .  S
N1524      H1528   1.045       .  S
C1533      C1534   1.413       .  A
C1533      C1538   1.406       .  A
C1534      C1535   1.403       .  A
C1534      N1539   1.438       .  S
C1535      C1536   1.400       .  A
C1535      H1540   1.084       .  S
C1536      C1541   1.472       .  S
C1536      C1537   1.407       .  A
C1537      C1538   1.401       .  A
C1537      N1542   1.438       .  S
C1538      H1543   1.084       .  S
N1539      H1559   1.046       .  S
N1539      H1560   1.045       .  S
C1541      C1544   1.399       .  A
C1541      C1548   1.405       .  A
N1542      H1557   1.045       .  S
N1542      H1558   1.046       .  S
C1544      C1545   1.403       .  A
C1544      H1549   1.084       .  S
C1545      C1546   1.418       .  A
C1545      N1550   1.438       .  S
C1546      C1547   1.408       .  A
C1547      C1548   1.400       .  A
C1547      H1551   1.083       .  S
C1548      N1552   1.438       .  S
N1550      H1553   1.046       .  S
N1550      H1554   1.046       .  S
N1552      H1555   1.046       .  S
N1552      H1556   1.046       .  S
C1561      C1562   1.412       .  A
C1561      C1566   1.404       .  A
C1562      C1563   1.403       .  A
C1562      N1567   1.438       .  S
C1563      C1564   1.401       .  A
C1563      H1568   1.084       .  S
C1564      C1569   1.473       .  S
C1564      C1565   1.407       .  A
C1565      C1566   1.401       .  A
C1565      N1570   1.438       .  S
C1566      H1571   1.084       .  S
N1567      H1587   1.046       .  S
N1567      H1588   1.046       .  S
C1569      C1572   1.401       .  A
C1569      C1576   1.406       .  A
N1570      H1585   1.046       .  S
N1570      H1586   1.046       .  S
C1572      C1573   1.405       .  A
C1572      H1577   1.084       .  S
C1573      C1574   1.412       .  A
C1573      N1578   1.438       .  S
C1574      C1575   1.404       .  A
C1575      C1576   1.400       .  A
C1575      H1579   1.084       .  S
C1576      N1580   1.438       .  S
N1578      H1581   1.046       .  S
N1578      H1582   1.046       .  S
N1580      H1583   1.046       .  S
N1580      H1584   1.045       .  S
C1589      C1590   1.409       .  A
C1589      C1594   1.400       .  A
C1590      C1591   1.402       .  A
C1590      N1595   1.438       .  S
C1591      C1592   1.401       .  A
C1591      H1596   1.084       .  S
C1592      C1597   1.470       .  S
C1592      C1593   1.409       .  A
C1593      C1594   1.399       .  A
C1593      N1598   1.438       .  S
C1594      H1599   1.084       .  S
N1595      H1615   1.046       .  S
N1595      H1616   1.045       .  S
C1597      C1600   1.398       .  A
C1597      C1604   1.407       .  A
N1598      H1613   1.045       .  S
N1598      H1614   1.046       .  S
C1600      C1601   1.399       .  A
C1600      H1605   1.084       .  S
C1601      C1602   1.414       .  A
C1601      N1606   1.438       .  S
C1602      C1603   1.406       .  A
C1603      C1604   1.403       .  A
C1603      H1607   1.084       .  S
C1604      N1608   1.438       .  S
N1606      H1609   1.046       .  S
N1606      H1610   1.046       .  S
N1608      H1611   1.046       .  S
N1608      H1612   1.046       .  S
C1617      C1618   1.419       .  A
C1617      C1622   1.409       .  A
C1618      C1619   1.407       .  A
C1618      N1623   1.438       .  S
C1619      C1620   1.400       .  A
C1619      H1624   1.084       .  S
C1620      C1625   1.475       .  S
C1620      C1621   1.404       .  A
C1621      C1622   1.401       .  A
C1621      N1626   1.438       .  S
C1622      H1627   1.083       .  S
N1623      H1643   1.045       .  S
N1623      H1644   1.046       .  S
C1625      C1628   1.401       .  A
C1625      C1632   1.406       .  A
N1626      H1641   1.046       .  S
N1626      H1642   1.046       .  S
C1628      C1629   1.405       .  A
C1628      H1633   1.084       .  S
C1629      C1630   1.414       .  A
C1629      N1634   1.438       .  S
C1630      C1631   1.406       .  A
C1631      C1632   1.403       .  A
C1631      H1635   1.084       .  S
C1632      N1636   1.437       .  S
N1634      H1637   1.046       .  S
N1634      H1638   1.045       .  S
N1636      H1639   1.045       .  S
N1636      H1640   1.046       .  S
C1645      C1646   1.418       .  A
C1645      C1650   1.406       .  A
C1646      C1647   1.404       .  A
C1646      N1651   1.438       .  S
C1647      C1648   1.398       .  A
C1647      H1652   1.084       .  S
C1648      C1653   1.471       .  S
C1648      C1649   1.407       .  A
C1649      C1650   1.402       .  A
C1649      N1654   1.438       .  S
C1650      H1655   1.083       .  S
N1651      H1671   1.046       .  S
N1651      H1672   1.046       .  S
C1653      C1656   1.401       .  A
C1653      C1660   1.407       .  A
N1654      H1669   1.046       .  S
N1654      H1670   1.045       .  S
C1656      C1657   1.402       .  A
C1656      H1661   1.084       .  S
C1657      C1658   1.409       .  A
C1657      N1662   1.432       .  S
C1658      C1659   1.406       .  A
C1659      C1660   1.402       .  A
C1659      H1663   1.084       .  S
C1660      N1664   1.439       .  S
N1662      H1665   1.045       .  S
N1662      H1666   1.046       .  S
N1664      H1667   1.045       .  S
N1664      H1668   1.045       .  S
C1673      C1674   1.414       .  A
C1673      C1678   1.406       .  A
C1674      C1675   1.407       .  A
C1674      N1679   1.438       .  S
C1675      C1676   1.403       .  A
C1675      H1680   1.084       .  S
C1676      C1681   1.483       .  S
C1676      C1677   1.408       .  A
C1677      C1678   1.403       .  A
C1677      N1682   1.438       .  S
C1678      H1683   1.084       .  S
N1679      H1699   1.046       .  S
N1679      H1700   1.046       .  S
C1681      C1684   1.404       .  A
C1681      C1688   1.409       .  A
N1682      H1697   1.046       .  S
N1682      H1698   1.046       .  S
C1684      C1685   1.406       .  A
C1684      H1689   1.084       .  S
C1685      C1686   1.411       .  A
C1685      N1690   1.437       .  S
C1686      C1687   1.403       .  A
C1687      C1688   1.404       .  A
C1687      H1691   1.084       .  S
C1688      N1692   1.438       .  S
N1690      H1693   1.046       .  S
N1690      H1694   1.046       .  S
N1692      H1695   1.046       .  S
N1692      H1696   1.046       .  S
C1701      C1702   1.413       .  A
C1701      C1706   1.405       .  A
C1702      C1703   1.405       .  A
C1702      N1707   1.438       .  S
C1703      C1704   1.402       .  A
C1703      H1708   1.084       .  S
C1704      C1709   1.477       .  S
C1704      C1705   1.407       .  A
C1705      C1706   1.403       .  A
C1705      N1710   1.438       .  S
C1706      H1711   1.084       .  S
N1707      H1727   1.046       .  S
N1707      H1728   1.046       .  S
C1709      C1712   1.403       .  A
C1709      C1716   1.409       .  A
N1710      H1725   1.046       .  S
N1710      H1726   1.046       .  S
C1712      C1713   1.405       .  A
C1712      H1717   1.084       .  S
C1713      C1714   1.409       .  A
C1713      N1718   1.438       .  S
C1714      C1715   1.402       .  A
C1715      C1716   1.403       .  A
C1715      H1719   1.084       .  S
C1716      N1720   1.438       .  S
N1718      H1721   1.045       .  S
N1718      H1722   1.046       .  S
N1720      H1723   1.045       .  S
N1720      H1724   1.046       .  S
