geometry optimzed in LAMMPS
_audit_creation_date              2020-12-01 
_audit_creation_method            'lammps2cif' 
_symmetry_space_group_name_H-M    'P1' 
_symmetry_Int_Tables_number       1 
_symmetry_cell_setting            triclinic 
loop_ 
_symmetry_equiv_pos_as_xyz 
  x,y,z 
_cell_length_a                    38.72221091 
_cell_length_b                    39.1898294219606 
_cell_length_c                    37.77071629649767 
_cell_angle_alpha                 83.60630529033742 
_cell_angle_beta                  95.8479243957202 
_cell_angle_gamma                 100.20115844698365 
loop_ 
_atom_site_label 
_atom_site_type_symbol 
_atom_site_fract_x 
_atom_site_fract_y 
_atom_site_fract_z 
_atom_site_charge 
N1          N  0.96003406  0.02379015  0.48776549    -0.36700
N2          N  0.03676774  0.03496774  0.49183133    -0.57200
N3          N  0.03403715  0.96045321  0.48654868    -0.36700
N4          N  0.95765444  0.94878756  0.48682957    -0.57200
C5          C  0.96708074  0.05760178  0.49495256     0.26900
C6          C  0.92525523  0.01223244  0.49091902     0.26900
C7          C  0.06897811  0.97070610  0.49444349     0.26900
C8          C  0.02735561  0.92524298  0.49257413     0.26900
C9          C  0.03224763  0.06865747  0.48942149     0.35500
C10         C  0.07118790  0.03523353  0.48797541     0.35500
C11         C  0.92280603  0.94972788  0.48063813     0.35500
C12         C  0.96195088  0.91635680  0.48122115     0.35500
C13         C  0.93605109  0.06773658  0.50199450    -0.22000
C14         C  0.90985632  0.03919215  0.49965496    -0.22000
C15         C  0.08471828  0.94165601  0.50517917    -0.22000
C16         C  0.05848148  0.91302003  0.50408412    -0.22000
C17         C  0.06421226  0.09036497  0.48469211    -0.23000
C18         C  0.08871642  0.06923846  0.48339936    -0.23000
C19         C  0.90491576  0.91765825  0.47130656    -0.23000
C20         C  0.92968754  0.89652926  0.47174021    -0.23000
C21         C  0.00021154  0.08014149  0.49352673    -0.18400
C22         C  0.90653796  0.97854922  0.48465253    -0.18400
C23         C  0.99424958  0.90365986  0.48662862    -0.18400
C24         C  0.08751170  0.00533379  0.49056603    -0.18400
H25         H  0.93227587  0.09318929  0.50772263     0.14600
H26         H  0.88244636  0.03854940  0.50360963     0.14600
H27         H  0.11230941  0.94113751  0.51303416     0.14600
H28         H  0.06199163  0.88621256  0.51088250     0.14600
H29         H  0.06960045  0.11851538  0.48266589     0.12800
H30         H  0.11642311  0.07798833  0.48012685     0.12800
H31         H  0.87689315  0.91016977  0.46493128     0.12800
H32         H  0.92450626  0.86959862  0.46585981     0.12800
H33         H  0.97710573  0.01033792  0.47792975     0.26100
H34         H  0.01664964  0.97620122  0.47398680     0.26100
O35         O  0.90564209  0.47483755  0.48160835    -0.81000
O36         O  0.06812251  0.47671303  0.48891803    -0.65600
O37         O  0.97298871  0.46536975  0.51436405    -1.12200
C38         C  0.00132300  0.58727354  0.52333555     1.05900
O39         O  0.08684833  0.50760244  0.53466747    -0.78800
O40         O  0.04238804  0.52508439  0.57666720    -0.66400
Ni41       Ni  0.93489078  0.43883458  0.48800728     1.34900
C42         C  0.01229861  0.51381996  0.58785109     0.84700
O43         O  0.01790615  0.42033385  0.49923156    -0.79400
O44         O  0.95976133  0.39989160  0.49292856    -0.89700
C45         C  0.09313585  0.49053016  0.51002286     0.84200
O46         O  0.94987647  0.45289645  0.44116238    -0.67900
O47         O  0.03294821  0.58181632  0.53018005    -0.87200
C48         C  0.97921915  0.46611904  0.42900572     0.85100
C49         C  0.99187600  0.39539791  0.49649020     1.06600
H50         H  0.02101215  0.52997601  0.47846833     0.38400
O51         O  0.02023627  0.51837980  0.50238591    -1.09800
O52         O  0.98421927  0.50930519  0.56693170    -0.66500
Ni53       Ni  0.97307325  0.51410357  0.51548739     1.26300
O54         O  0.00728515  0.47445834  0.44917994    -0.66700
O55         O  0.97527976  0.56355464  0.51572348    -0.79000
C56         C  0.89961084  0.49359247  0.50501307     0.84500
O57         O  0.92464805  0.50753522  0.52598048    -0.66200
Ni58       Ni  0.05776772  0.54326399  0.53112776     1.27400
Ni59       Ni  0.01988062  0.46968561  0.50033660     1.26100
H60         H  0.97310076  0.45440111  0.53859828     0.39000
O61         O  0.41493231  0.00492167  0.45962195    -0.81000
O62         O  0.56963313  0.97648402  0.48055728    -0.65600
O63         O  0.47484729  0.98228842  0.49601386    -1.12200
C64         C  0.52314085  0.10207329  0.50083121     1.05900
O65         O  0.58928586  0.00642866  0.52660575    -0.78800
O66         O  0.55037061  0.04038906  0.56137741    -0.66400
Ni67       Ni  0.43665258  0.96389749  0.46379920     1.34900
C68         C  0.51948592  0.03066904  0.57121270     0.84700
O69         O  0.51115566  0.92898309  0.48782972    -0.79400
O70         O  0.45435723  0.92085665  0.46580001    -0.89700
C71         C  0.59433297  0.98689180  0.50359055     0.84200
O72         O  0.45744947  0.98081710  0.42035873    -0.67900
O73         O  0.55309786  0.09222295  0.50653088    -0.87200
C74         C  0.48895899  0.98527306  0.41209946     0.85100
C75         C  0.48290951  0.90962819  0.47699933     1.06600
H76         H  0.53254249  0.03818858  0.46294931     0.38400
O77         O  0.52969609  0.02772951  0.48708529    -1.09800
O78         O  0.49248152  0.02500413  0.54914664    -0.66500
Ni79       Ni  0.48344967  0.03148925  0.49789260     1.26300
O80         O  0.51493279  0.98319793  0.43532041    -0.66700
O81         O  0.49384783  0.08114883  0.49858568    -0.79000
C82         C  0.41003873  0.02130037  0.48536571     0.84500
O83         O  0.43575007  0.03235998  0.50709778    -0.66200
Ni84       Ni  0.56940312  0.04855439  0.51587435     1.27400
Ni85       Ni  0.52157836  0.97837591  0.48705900     1.26100
H86         H  0.47042307  0.97087405  0.51954768     0.39000
N87         N  0.49808120  0.97544107  0.03313074    -0.36700
N88         N  0.50652357  0.05162234  0.02730225    -0.57200
N89         N  0.50555925  0.05283329  0.95034311    -0.36700
N90         N  0.50126922  0.97712136  0.95695550    -0.57200
C91         C  0.50673332  0.98222511  0.06757855     0.26900
C92         C  0.50385307  0.94272024  0.03048565     0.26900
C93         C  0.51586943  0.08707771  0.95481427     0.26900
C94         C  0.51433563  0.04782335  0.91774578     0.26900
C95         C  0.49851058  0.04414111  0.06163474     0.35500
C96         C  0.50191899  0.08494425  0.01776505     0.35500
C97         C  0.49231481  0.94229181  0.96469759     0.35500
C98         C  0.49684884  0.98332688  0.92097843     0.35500
C99         C  0.51824816  0.95361279  0.08701036    -0.22000
C100        C  0.51654140  0.92873536  0.06359843    -0.22000
C101        C  0.53138767  0.10399512  0.92472758    -0.22000
C102        C  0.53037159  0.07924073  0.90131173    -0.22000
C103        C  0.48886067  0.07280681  0.07399790    -0.23000
C104        C  0.49094024  0.09863484  0.04618322    -0.23000
C105        C  0.48190720  0.92638186  0.93343596    -0.23000
C106        C  0.48506349  0.95234179  0.90574520    -0.23000
C107        C  0.50178523  0.01242270  0.08248308    -0.18400
C108        C  0.49630349  0.92462796  0.99935766    -0.18400
C109        C  0.50629825  0.01612277  0.90160278    -0.18400
C110        C  0.50965692  0.10368938  0.98445090    -0.18400
H111        H  0.52673316  0.95085555  0.11523442     0.14600
H112        H  0.52367095  0.90317391  0.07029552     0.14600
H113        H  0.54212120  0.13138788  0.92001357     0.14600
H114        H  0.54006310  0.08392864  0.87502191     0.14600
H115        H  0.48121558  0.07495892  0.10032606     0.12800
H116        H  0.48513805  0.12454804  0.04691385     0.12800
H117        H  0.47349567  0.89889420  0.93072261     0.12800
H118        H  0.47973565  0.94877426  0.87758470     0.12800
H119        H  0.48500851  0.99064508  0.01373077     0.26100
H120        H  0.48986945  0.03478487  0.96677251     0.26100
N121        N  0.96199946  0.47314056  0.04645667    -0.36700
N122        N  0.95597115  0.47227368  0.96859204    -0.57200
N123        N  0.03169995  0.49253516  0.96930886    -0.36700
N124        N  0.03710896  0.48872823  0.04789862    -0.57200
C125        C  0.92800874  0.45844926  0.03987626     0.26900
C126        C  0.97073108  0.46636311  0.08186543     0.26900
C127        C  0.02343690  0.48362188  0.93543524     0.26900
C128        C  0.06643499  0.49171692  0.97728942     0.26900
C129        C  0.92204863  0.47243851  0.97396621     0.35500
C130        C  0.95889944  0.48100814  0.93324364     0.35500
C131        C  0.03362987  0.49309915  0.08234137     0.35500
C132        C  0.07055522  0.50281831  0.04144536     0.35500
C133        C  0.91496293  0.44184300  0.07131331    -0.22000
C134        C  0.94201628  0.44667286  0.09782681    -0.22000
C135        C  0.05333229  0.47747336  0.92161559    -0.22000
C136        C  0.08044303  0.48250123  0.94802966    -0.22000
C137        C  0.90335460  0.48112911  0.94189057    -0.23000
C138        C  0.92670149  0.48635028  0.91602982    -0.23000
C139        C  0.06499785  0.51018568  0.09778967    -0.23000
C140        C  0.08845752  0.51618988  0.07191637    -0.23000
C141        C  0.90748437  0.46332816  0.00720254    -0.18400
C142        C  0.00305219  0.47985272  0.10037692    -0.18400
C143        C  0.08610809  0.50049555  0.00969889    -0.18400
C144        C  0.98996171  0.48248991  0.91618806    -0.18400
H145        H  0.88844341  0.42836139  0.07486780     0.14600
H146        H  0.94044558  0.43742575  0.12579926     0.14600
H147        H  0.05540648  0.47004905  0.89525609     0.14600
H148        H  0.10743643  0.47971903  0.94584942     0.14600
H149        H  0.87576714  0.48338517  0.93747319     0.12800
H150        H  0.92071792  0.49348183  0.88784616     0.12800
H151        H  0.07055841  0.51721843  0.12493913     0.12800
H152        H  0.11572543  0.52858606  0.07524825     0.12800
H153        H  0.97648614  0.49094184  0.02878949     0.26100
H154        H  0.01546338  0.50198537  0.98481567     0.26100
O155        O  0.47932756  0.42006413  0.02698405    -0.81000
O156        O  0.48889350  0.58421302  0.01778852    -0.65600
O157        O  0.47627554  0.48888995  0.99648181    -1.12200
C158        C  0.60211927  0.51102674  0.00658031     1.05900
O159        O  0.52759707  0.59917189  0.97755519    -0.78800
O160        O  0.55632419  0.55510764  0.94423234    -0.66400
Ni161      Ni  0.44773220  0.45347766  0.02455198     1.34900
C162        C  0.53994249  0.52805163  0.93050502     0.84700
O163        O  0.43179160  0.53666960  0.00226632    -0.79400
O164        O  0.41188111  0.48198763  0.02441073    -0.89700
C165        C  0.50699293  0.60760647  0.99800127     0.84200
O166        O  0.46907908  0.46713254  0.06943672    -0.67900
O167        O  0.59977359  0.54327876  0.00430552    -0.87200
C168        C  0.47775436  0.49709196  0.08051077     0.85100
C169        C  0.40717195  0.51285522  0.01293142     1.06600
H170        H  0.53818569  0.53179198  0.03883509     0.38400
O171        O  0.53032314  0.53304338  0.01369929    -1.09800
O172        O  0.52544940  0.50118256  0.94899169    -0.66500
Ni173      Ni  0.52554841  0.48707864  0.99952155     1.26300
O174        O  0.47955132  0.52508285  0.05954665    -0.66700
O175        O  0.57552852  0.48675946  0.00330406    -0.79000
C176        C  0.50118565  0.41494324  0.00594866     0.84500
O177        O  0.51823335  0.44001504  0.98717564    -0.66200
Ni178      Ni  0.56241161  0.56957067  0.99144622     1.27400
Ni179      Ni  0.48133186  0.53599075  0.00829824     1.26100
H180        H  0.46654247  0.48807028  0.97190606     0.39000
O181        O  0.46343111  0.51048479  0.41476211    -0.81000
O182        O  0.48519889  0.52159622  0.57949257    -0.65600
O183        O  0.49975761  0.53030716  0.48005362    -1.12200
C184        C  0.51187427  0.41147009  0.50554248     1.05900
O185        O  0.53277275  0.49739036  0.59205417    -0.78800
O186        O  0.56862598  0.47475515  0.54428004    -0.66400
Ni187      Ni  0.46658528  0.54781867  0.44498159     1.34900
C188        C  0.57775275  0.48877788  0.51397718     0.84700
O189        O  0.48868781  0.57522628  0.52829115    -0.79400
O190        O  0.46720567  0.58712966  0.47138350    -0.89700
C191        C  0.50889584  0.51172166  0.60207943     0.84200
O192        O  0.42436528  0.52442691  0.46449686    -0.67900
O193        O  0.51763774  0.41758294  0.53834057    -0.87200
C194        C  0.41655671  0.51531625  0.49634818     0.85100
C195        C  0.47719450  0.59567537  0.50295363     1.06600
H196        H  0.47098795  0.46538497  0.52952053     0.38400
O197        O  0.49419009  0.47911339  0.52792855    -1.09800
O198        O  0.55536477  0.49484158  0.48786490    -0.66500
Ni199      Ni  0.50451658  0.48294754  0.47923862     1.26300
O200        O  0.43980187  0.51598378  0.52287510    -0.66700
O201        O  0.50754053  0.43471236  0.47982300    -0.79000
C202        C  0.48861530  0.49694106  0.40641803     0.84500
O203        O  0.51247459  0.48892022  0.42973750    -0.66200
Ni204      Ni  0.52437382  0.45832610  0.56366306     1.27400
Ni205      Ni  0.49098111  0.52688768  0.52928926     1.26100
H206        H  0.52231268  0.54495785  0.47712982     0.39000
C207        C  0.50936298  0.51695514  0.64042466    -0.03300
C208        C  0.47919344  0.52321690  0.65470715    -0.05900
C209        C  0.47888149  0.52459605  0.69159958    -0.20900
C210        C  0.50886826  0.52041575  0.71485147     0.24800
C211        C  0.53927377  0.51486363  0.70039026    -0.18500
C212        C  0.53948066  0.51317259  0.66366608    -0.08500
C213        C  0.50717690  0.52018536  0.75409659    -0.18800
C214        C  0.53587419  0.52919899  0.77657394    -0.23600
C215        C  0.53522833  0.52875237  0.81591026     0.26800
C216        C  0.56216170  0.55038136  0.83444992    -0.20300
C217        C  0.56339336  0.55030150  0.87152621    -0.10000
C218        C  0.53807219  0.52799938  0.89113082    -0.10500
C219        C  0.51132043  0.50586266  0.87273627    -0.03400
C220        C  0.50977203  0.50633784  0.83543139    -0.18600
H221        H  0.45548913  0.52594805  0.63753040     0.10500
H222        H  0.45505339  0.52867211  0.70205699     0.10600
H223        H  0.56261055  0.51055383  0.71741225     0.10300
H224        H  0.56311671  0.50818582  0.65355012     0.11400
H225        H  0.48142539  0.51364623  0.76442338     0.11500
H226        H  0.56098461  0.53899210  0.76561919     0.13400
H227        H  0.58231846  0.56757012  0.82013784     0.09900
H228        H  0.58454543  0.56740585  0.88493076     0.12000
H229        H  0.49149804  0.48833651  0.88716677     0.08600
H230        H  0.48915641  0.48862790  0.82214895     0.11300
C231        C  0.48559133  0.49912284  0.11958415    -0.03300
C232        C  0.49363729  0.53136882  0.13417765    -0.05900
C233        C  0.49975590  0.53271342  0.17124408    -0.20900
C234        C  0.49755852  0.50192666  0.19439896     0.24800
C235        C  0.49059780  0.46975153  0.17976024    -0.18500
C236        C  0.48463106  0.46837873  0.14285419    -0.08500
C237        C  0.50249119  0.50392608  0.23365749    -0.18800
C238        C  0.48538409  0.47957688  0.25666875    -0.23600
C239        C  0.48760108  0.48261360  0.29557557     0.26800
C240        C  0.45730044  0.47108388  0.31387433    -0.20300
C241        C  0.45783767  0.47519257  0.35018580    -0.10000
C242        C  0.48906454  0.48970398  0.36910194    -0.10500
C243        C  0.51991025  0.49963446  0.35132918    -0.03400
C244        C  0.51911860  0.49651113  0.31466560    -0.18600
H245        H  0.49482623  0.55553529  0.11702712     0.10500
H246        H  0.50542906  0.55783362  0.18191146     0.10600
H247        H  0.48991179  0.44554695  0.19675363     0.10300
H248        H  0.47904858  0.44307337  0.13260316     0.11400
H249        H  0.51833160  0.52720028  0.24360831     0.11500
H250        H  0.46652582  0.45827066  0.24639026     0.13400
H251        H  0.43285731  0.45993837  0.29974894     0.09900
H252        H  0.43380294  0.46725593  0.36349745     0.12000
H253        H  0.54422570  0.51099449  0.36550926     0.08600
H254        H  0.54305615  0.50489036  0.30130759     0.11300
C255        C  0.63784347  0.50190168  0.01334400    -0.03300
C256        C  0.66558066  0.52601640  0.02767060    -0.05900
C257        C  0.69970089  0.51862404  0.03303271    -0.20900
C258        C  0.70711178  0.48732528  0.02353956     0.24800
C259        C  0.67945414  0.46277216  0.00969333    -0.18500
C260        C  0.64498571  0.46993404  0.00487033    -0.08500
C261        C  0.74407304  0.48157159  0.02868058    -0.18800
C262        C  0.75843492  0.46467754  0.00633740    -0.23600
C263        C  0.79674834  0.46345105  0.00856502     0.26800
C264        C  0.80838671  0.43788454  0.99166712    -0.20300
C265        C  0.84438094  0.43705716  0.99179398    -0.10000
C266        C  0.86921401  0.46202538  0.00860469    -0.10500
C267        C  0.85776190  0.48747680  0.02555500    -0.03400
C268        C  0.82196622  0.48841119  0.02536443    -0.18600
H269        H  0.66094142  0.55074254  0.03478608     0.10500
H270        H  0.72058167  0.53781013  0.04393595     0.10600
H271        H  0.68434081  0.43803771  0.00290157     0.10300
H272        H  0.62410673  0.45081389  0.99390816     0.11400
H273        H  0.76034691  0.49400254  0.05027517     0.11500
H274        H  0.74181822  0.45218496  0.98490522     0.13400
H275        H  0.78958362  0.41867361  0.97815138     0.09900
H276        H  0.85291965  0.41737104  0.97837494     0.12000
H277        H  0.87670629  0.50725058  0.03814505     0.08600
H278        H  0.81453134  0.50949486  0.03739724     0.11300
C279        C  0.12503684  0.50377500  0.01168241    -0.03300
C280        C  0.14137749  0.47842839  0.03263236    -0.05900
C281        C  0.17773954  0.48023420  0.03404781    -0.20900
C282        C  0.19870528  0.50748572  0.01471126     0.24800
C283        C  0.18230051  0.53316218  0.99377610    -0.18500
C284        C  0.14565756  0.53121355  0.99225808    -0.08500
C285        C  0.23712134  0.50674012  0.01665362    -0.18800
C286        C  0.26211696  0.53324341  0.00556287    -0.23600
C287        C  0.30009287  0.52991584  0.00916332     0.26800
C288        C  0.32292796  0.54945649  0.98490283    -0.20300
C289        C  0.35824147  0.54493861  0.98658191    -0.10000
C290        C  0.37115587  0.52067572  0.01252090    -0.10500
C291        C  0.34872705  0.50236116  0.03768140    -0.03400
C292        C  0.31382876  0.50724244  0.03636833    -0.18600
H293        H  0.12582566  0.45696345  0.04759759     0.10500
H294        H  0.18955067  0.46005293  0.05028837     0.10600
H295        H  0.19731202  0.55428321  0.97802134     0.10300
H296        H  0.13332052  0.55088496  0.97577500     0.11400
H297        H  0.24509402  0.48238832  0.02804545     0.11500
H298        H  0.25490646  0.55743636  0.99275477     0.13400
H299        H  0.31318075  0.56749301  0.96403270     0.09900
H300        H  0.37506446  0.55947229  0.96692522     0.12000
H301        H  0.35821518  0.48410293  0.05849102     0.08600
H302        H  0.29776917  0.49309231  0.05678991     0.11300
C303        C  0.50376205  0.64510871  0.99708946    -0.03300
C304        C  0.52346800  0.66980142  0.97382133    -0.05900
C305        C  0.52148112  0.70512507  0.97234680    -0.20900
C306        C  0.50002363  0.71725129  0.99423749     0.24800
C307        C  0.48015492  0.69273660  0.01777975    -0.18500
C308        C  0.48201079  0.65698086  0.01913390    -0.08500
C309        C  0.49926927  0.75552876  0.99039341    -0.18800
C310        C  0.48784470  0.77336553  0.01423222    -0.23600
C311        C  0.49035805  0.81224608  0.00983562     0.26800
C312        C  0.46888961  0.82790650  0.02877184    -0.20300
C313        C  0.47066691  0.86421607  0.02533590    -0.10000
C314        C  0.49429817  0.88582235  0.00317531    -0.10500
C315        C  0.51646243  0.87033338  0.98504570    -0.03400
C316        C  0.51455164  0.83411760  0.98825001    -0.18600
H317        H  0.54062564  0.66188732  0.95649683     0.10500
H318        H  0.53710324  0.72319787  0.95396072     0.10600
H319        H  0.46285417  0.70085344  0.03474418     0.10300
H320        H  0.46646690  0.63868506  0.03737290     0.11400
H321        H  0.50975817  0.76982139  0.96649894     0.11500
H322        H  0.47636361  0.75935719  0.03779495     0.13400
H323        H  0.45043139  0.81196252  0.04605016     0.09900
H324        H  0.45350898  0.87549953  0.03991647     0.12000
H325        H  0.53549086  0.88639980  0.96846926     0.08600
H326        H  0.53277044  0.82367196  0.97434049     0.11300
C327        C  0.51177865  0.14238460  0.98052868    -0.03300
C328        C  0.48996979  0.15845944  0.95421027    -0.05900
C329        C  0.49088650  0.19456704  0.95149705    -0.20900
C330        C  0.51313213  0.21522289  0.97543935     0.24800
C331        C  0.53569643  0.19924064  0.00110436    -0.18500
C332        C  0.53512412  0.16324465  0.00348544    -0.08500
C333        C  0.51224505  0.25325678  0.97329588    -0.18800
C334        C  0.51649937  0.27061153  0.00271931    -0.23600
C335        C  0.51326400  0.30793089  0.00228811     0.26800
C336        C  0.50091600  0.31869622  0.03212635    -0.20300
C337        C  0.49745146  0.35341337  0.03322251    -0.10000
C338        C  0.50696649  0.37857934  0.00476762    -0.10500
C339        C  0.52038262  0.36810580  0.97521731    -0.03400
C340        C  0.52323445  0.33300528  0.97383212    -0.18600
H341        H  0.47185776  0.14293597  0.93610950     0.10500
H342        H  0.47348647  0.20626901  0.93129326     0.10600
H343        H  0.55392777  0.21455212  0.01925862     0.10300
H344        H  0.55262829  0.15153365  0.02356349     0.11400
H345        H  0.50518175  0.26650353  0.94745876     0.11500
H346        H  0.51984218  0.25617990  0.02876737     0.13400
H347        H  0.49338658  0.30001417  0.05453632     0.09900
H348        H  0.48728224  0.36056243  0.05652951     0.12000
H349        H  0.52798951  0.38687887  0.95292936     0.08600
H350        H  0.53363538  0.32563849  0.95079285     0.11300
C351        C  0.48262270  0.87201743  0.47775246    -0.03300
C352        C  0.45765950  0.85202750  0.45545640    -0.05900
C353        C  0.45564795  0.81606635  0.45758886    -0.20900
C354        C  0.47803432  0.79937803  0.48247856     0.24800
C355        C  0.50371637  0.81938841  0.50417732    -0.18500
C356        C  0.50606647  0.85551573  0.50169980    -0.08500
C357        C  0.47416526  0.76116577  0.48431197    -0.18800
C358        C  0.48201446  0.74105501  0.51423813    -0.23600
C359        C  0.47771438  0.70282085  0.51460804     0.26800
C360        C  0.50119376  0.68467905  0.53663531    -0.20300
C361        C  0.50015265  0.64915897  0.53422906    -0.10000
C362        C  0.47556617  0.63152172  0.50971301    -0.10500
C363        C  0.45058524  0.64919946  0.48953311    -0.03400
C364        C  0.45137113  0.68441547  0.49222793    -0.18600
H365        H  0.43954557  0.86418366  0.43645897     0.10500
H366        H  0.43602235  0.80113266  0.44027163     0.10600
H367        H  0.52214522  0.80733068  0.52279874     0.10300
H368        H  0.52563856  0.87042267  0.51906777     0.11400
H369        H  0.46357417  0.74923182  0.46003297     0.11500
H370        H  0.49308660  0.75274739  0.53850941     0.13400
H371        H  0.52132325  0.69832108  0.55448686     0.09900
H372        H  0.51956355  0.63594131  0.55019877     0.12000
H373        H  0.43079069  0.63589167  0.47111742     0.08600
H374        H  0.43170356  0.69724381  0.47625777     0.11300
C375        C  0.52300469  0.13994512  0.49639044    -0.03300
C376        C  0.55497619  0.16310420  0.49349195    -0.05900
C377        C  0.55565824  0.19887397  0.49012075    -0.20900
C378        C  0.52447495  0.21239964  0.48923923     0.24800
C379        C  0.49227192  0.18946904  0.49171470    -0.18500
C380        C  0.49155757  0.15344509  0.49519443    -0.08500
C381        C  0.52732732  0.25034633  0.48952415    -0.18800
C382        C  0.50112215  0.26819954  0.47810882    -0.23600
C383        C  0.50461272  0.30524229  0.48426384     0.26800
C384        C  0.48912496  0.32843999  0.45924540    -0.20300
C385        C  0.49213451  0.36342148  0.46553654    -0.10000
C386        C  0.51000982  0.37530115  0.49734352    -0.10500
C387        C  0.52520689  0.35188550  0.52233575    -0.03400
C388        C  0.52249290  0.31727803  0.51592809    -0.18600
H389        H  0.57969149  0.15365593  0.49410683     0.10500
H390        H  0.58076896  0.21609605  0.48861706     0.10600
H391        H  0.46787476  0.19919711  0.49221229     0.10300
H392        H  0.46656239  0.13624014  0.49761942     0.11400
H393        H  0.55246247  0.26431359  0.49991506     0.11500
H394        H  0.47704929  0.25570624  0.46424020     0.13400
H395        H  0.47492258  0.31952837  0.43485504     0.09900
H396        H  0.47989866  0.38094274  0.44596771     0.12000
H397        H  0.53908338  0.36025362  0.54707944     0.08600
H398        H  0.53377110  0.29976593  0.53626416     0.11300
C399        C  0.51476725  0.02648034  0.61018171    -0.03300
C400        C  0.48094130  0.01930273  0.62251652    -0.05900
C401        C  0.47659402  0.01710034  0.65911074    -0.20900
C402        C  0.50583373  0.02191064  0.68445274     0.24800
C403        C  0.53976526  0.02888151  0.67205550    -0.18500
C404        C  0.54409539  0.03103639  0.63547342    -0.08500
C405        C  0.49941666  0.02033488  0.72309421    -0.18800
C406        C  0.52485544  0.02083338  0.75040654    -0.23600
C407        C  0.51845697  0.01931757  0.78892811     0.26800
C408        C  0.54493263  0.01031225  0.81478580    -0.20300
C409        C  0.54076098  0.00902821  0.85126334    -0.10000
C410        C  0.51015514  0.01711015  0.86272526    -0.10500
C411        C  0.48369319  0.02652896  0.83721631    -0.03400
C412        C  0.48773015  0.02762900  0.80059213    -0.18600
H413        H  0.45771441  0.01584375  0.60385921     0.10500
H414        H  0.45013348  0.01184904  0.66763016     0.10600
H415        H  0.56324390  0.03338237  0.69006800     0.10300
H416        H  0.57056593  0.03674609  0.62699548     0.11400
H417        H  0.47223791  0.01785959  0.72908634     0.11500
H418        H  0.55180335  0.02112840  0.74491890     0.13400
H419        H  0.56898536  0.00412053  0.80672270     0.09900
H420        H  0.56153135  0.00194916  0.87063803     0.12000
H421        H  0.46001042  0.03313019  0.84570686     0.08600
H422        H  0.46707634  0.03565680  0.78175879     0.11300
C423        C  0.49529428  0.99273830  0.37358998    -0.03300
C424        C  0.52910545  0.99519856  0.36195469    -0.05900
C425        C  0.53434962  0.00123943  0.32542934    -0.20900
C426        C  0.50596172  0.00468883  0.29971551     0.24800
C427        C  0.47231598  0.00303447  0.31147887    -0.18500
C428        C  0.46706240  0.99692516  0.34783833    -0.08500
C429        C  0.51230119  0.01026092  0.26101356    -0.18800
C430        C  0.48685509  0.00149922  0.23486696    -0.23600
C431        C  0.49228898  0.00496891  0.19606788     0.26800
C432        C  0.46751924  0.98504972  0.17349050    -0.20300
C433        C  0.47086820  0.98743915  0.13680576    -0.10000
C434        C  0.49889676  0.01011344  0.12172788    -0.10500
C435        C  0.52365996  0.03039244  0.14401035    -0.03400
C436        C  0.52041269  0.02790609  0.18090660    -0.18600
H437        H  0.55146850  0.99215585  0.38101418     0.10500
H438        H  0.56060454  0.00271226  0.31719115     0.10600
H439        H  0.44991398  0.00685510  0.29283240     0.10300
H440        H  0.44070534  0.99555592  0.35574039     0.11400
H441        H  0.53909784  0.01978750  0.25424478     0.11500
H442        H  0.46090146  0.98906913  0.24217597     0.13400
H443        H  0.44548603  0.96737982  0.18432375     0.09900
H444        H  0.45142069  0.97170971  0.12003815     0.12000
H445        H  0.54540064  0.04816657  0.13277938     0.08600
H446        H  0.53955504  0.04434900  0.19719009     0.11300
C447        C  0.61631744  0.49708140  0.50901657    -0.03300
C448        C  0.62877954  0.50963547  0.47547784    -0.05900
C449        C  0.66487645  0.51389407  0.47056390    -0.20900
C450        C  0.68954335  0.50604154  0.49902644     0.24800
C451        C  0.67711192  0.49426246  0.53274257    -0.18500
C452        C  0.64115122  0.48996840  0.53763486    -0.08500
C453        C  0.72731717  0.50767478  0.49203650    -0.18800
C454        C  0.75439815  0.50969727  0.51786302    -0.23600
C455        C  0.79180254  0.50775594  0.51224537     0.26800
C456        C  0.81850969  0.51787019  0.53904822    -0.20300
C457        C  0.85353359  0.51413235  0.53638026    -0.10000
C458        C  0.86283479  0.49972886  0.50695053    -0.10500
C459        C  0.83620124  0.48985788  0.47994186    -0.03400
C460        C  0.80121672  0.49384751  0.48247049    -0.18600
H461        H  0.61055562  0.51527091  0.45275928     0.10500
H462        H  0.67349645  0.52279845  0.44420812     0.10600
H463        H  0.69475998  0.48692518  0.55523803     0.10300
H464        H  0.63272285  0.48002618  0.56383446     0.11400
H465        H  0.73272406  0.50725517  0.46448849     0.11500
H466        H  0.74920035  0.51313421  0.54481084     0.13400
H467        H  0.81217220  0.52835286  0.56248351     0.09900
H468        H  0.87318998  0.52179387  0.55781847     0.12000
H469        H  0.84229984  0.47855651  0.45692179     0.08600
H470        H  0.78160125  0.48492272  0.46155943     0.11300
C471        C  0.13030056  0.48637007  0.50725058    -0.03300
C472        C  0.13987120  0.47079949  0.47877593    -0.05900
C473        C  0.17536011  0.46925248  0.47549186    -0.20900
C474        C  0.20216418  0.48293137  0.50066918     0.24800
C475        C  0.19245003  0.49813684  0.52940285    -0.18500
C476        C  0.15708462  0.49972547  0.53264187    -0.08500
C477        C  0.23982739  0.48301221  0.49459257    -0.18800
C478        C  0.26722730  0.48862161  0.51976880    -0.23600
C479        C  0.30523487  0.49217580  0.51288617     0.26800
C480        C  0.33087322  0.49209658  0.54215470    -0.20300
C481        C  0.36696939  0.49829882  0.53703379    -0.10000
C482        C  0.37842253  0.50489257  0.50239263    -0.10500
C483        C  0.35273262  0.50411356  0.47311774    -0.03400
C484        C  0.31676390  0.49800447  0.47821818    -0.18600
H485        H  0.12004018  0.46044094  0.45863315     0.10500
H486        H  0.18194996  0.45766483  0.45287154     0.10600
H487        H  0.21198363  0.50991609  0.54892810     0.10300
H488        H  0.15083494  0.51212443  0.55486068     0.11400
H489        H  0.24477794  0.47804515  0.46807324     0.11500
H490        H  0.26190961  0.49083196  0.54697598     0.13400
H491        H  0.32296565  0.48790343  0.56920782     0.09900
H492        H  0.38588118  0.49886629  0.56023793     0.12000
H493        H  0.36039313  0.50924985  0.44599833     0.08600
H494        H  0.29839879  0.49916998  0.45477061     0.11300
C495        C  0.01039282  0.50673967  0.62723203    -0.03300
C496        C  0.04098406  0.51487455  0.65026382    -0.05900
C497        C  0.03961234  0.51072092  0.68725941    -0.20900
C498        C  0.00775990  0.49811826  0.70257098     0.24800
C499        C  0.97706302  0.48923952  0.67973642    -0.18500
C500        C  0.97841373  0.49353410  0.64241910    -0.08500
C501        C  0.00804473  0.49699398  0.74218085    -0.18800
C502        C  0.98185591  0.48043837  0.76190982    -0.23600
C503        C  0.98379643  0.48158018  0.80142028     0.26800
C504        C  0.96543385  0.45383885  0.82256122    -0.20300
C505        C  0.96731654  0.45409943  0.85979021    -0.10000
C506        C  0.98734751  0.48229929  0.87653468    -0.10500
C507        C  0.00494563  0.51043980  0.85541364    -0.03400
C508        C  0.00308941  0.51020585  0.81827679    -0.18600
H509        H  0.06612192  0.52521428  0.63974933     0.10500
H510        H  0.06364983  0.51792409  0.70403915     0.10600
H511        H  0.95183646  0.47998070  0.69034384     0.10300
H512        H  0.95433615  0.48713017  0.62548729     0.11400
H513        H  0.03184861  0.51015108  0.75592301     0.11500
H514        H  0.95910979  0.46452014  0.74934697     0.13400
H515        H  0.95003889  0.43169244  0.81029334     0.09900
H516        H  0.95338420  0.43218875  0.87561907     0.12000
H517        H  0.02004555  0.53268381  0.86774857     0.08600
H518        H  0.01642164  0.53274051  0.80288201     0.11300
C519        C  0.98048116  0.47108496  0.38937716    -0.03300
C520        C  0.94906215  0.46753129  0.36679214    -0.05900
C521        C  0.94979816  0.47051517  0.32960206    -0.20900
C522        C  0.98187293  0.47664689  0.31378658     0.24800
C523        C  0.01342835  0.48045682  0.33625901    -0.18500
C524        C  0.01270307  0.47773994  0.37360098    -0.08500
C525        C  0.98100266  0.47994243  0.27389183    -0.18800
C526        C  0.00752570  0.47472289  0.25559045    -0.23600
C527        C  0.00594119  0.47689992  0.21567090     0.26800
C528        C  0.02839165  0.45972700  0.19968543    -0.20300
C529        C  0.02767690  0.46082807  0.16240245    -0.10000
C530        C  0.00475331  0.47951736  0.14016910    -0.10500
C531        C  0.98276673  0.49731369  0.15598904    -0.03400
C532        C  0.98335291  0.49611457  0.19328331    -0.18600
H533        H  0.92371909  0.46238333  0.37784990     0.10500
H534        H  0.92507771  0.46767986  0.31308489     0.10600
H535        H  0.03872975  0.48604229  0.32520379     0.10300
H536        H  0.03739976  0.48048306  0.39012798     0.11400
H537        H  0.95657741  0.48502115  0.25920343     0.11500
H538        H  0.03072942  0.46660998  0.27029945     0.13400
H539        H  0.04626708  0.44498375  0.21614109     0.09900
H540        H  0.04481294  0.44682537  0.15085323     0.12000
H541        H  0.96508937  0.51215607  0.13936119     0.08600
H542        H  0.96642920  0.51066183  0.20431315     0.11300
C543        C  0.12630021  0.01012344  0.48856389    -0.03300
C544        C  0.13941523  0.00196364  0.45792092    -0.05900
C545        C  0.17560387  0.00445339  0.45607036    -0.20900
C546        C  0.19964504  0.01518309  0.48477210     0.24800
C547        C  0.18644691  0.02379401  0.51549639    -0.18500
C548        C  0.15001503  0.02127752  0.51730180    -0.08500
C549        C  0.23776416  0.01546854  0.48139043    -0.18800
C550        C  0.26485876  0.03083348  0.50274631    -0.23600
C551        C  0.30250930  0.03043539  0.49734951     0.26800
C552        C  0.32828973  0.03488125  0.52628073    -0.20300
C553        C  0.36363640  0.03336623  0.52227091    -0.10000
C554        C  0.37388109  0.02734591  0.48917329    -0.10500
C555        C  0.34834519  0.02418655  0.45997649    -0.03400
C556        C  0.31326440  0.02605965  0.46385994    -0.18600
H557        H  0.12149960  0.99325599  0.43553384     0.10500
H558        H  0.18485805  0.99764822  0.43208983     0.10600
H559        H  0.20384139  0.03163160  0.53846144     0.10300
H560        H  0.14024943  0.02740934  0.54130048     0.11400
H561        H  0.24352042  0.00194545  0.45973104     0.11500
H562        H  0.25967621  0.04354166  0.52524509     0.13400
H563        H  0.32091812  0.03871662  0.55227524     0.09900
H564        H  0.38268240  0.03571350  0.54531544     0.12000
H565        H  0.35544675  0.01996679  0.43399369     0.08600
H566        H  0.29484049  0.02418741  0.44037611     0.11300
C567        C  0.62926552  0.97604785  0.50445739    -0.03300
C568        C  0.65326673  0.98034917  0.53478057    -0.05900
C569        C  0.68720466  0.97279936  0.53507918    -0.20900
C570        C  0.69835293  0.96147072  0.50487597     0.24800
C571        C  0.67409866  0.95607667  0.47477724    -0.18500
C572        C  0.63979537  0.96317317  0.47466403    -0.08500
C573        C  0.73570137  0.95661394  0.50588446    -0.18800
C574        C  0.75409204  0.96182388  0.47676330    -0.23600
C575        C  0.79306032  0.96386833  0.47881812     0.26800
C576        C  0.81162957  0.98334079  0.45112552    -0.20300
C577        C  0.84841131  0.98804328  0.45302701    -0.10000
C578        C  0.86735701  0.97304787  0.48251833    -0.10500
C579        C  0.84896945  0.95264438  0.50975994    -0.03400
C580        C  0.81214834  0.94794228  0.50791233    -0.18600
H581        H  0.64596298  0.98999476  0.55825848     0.10500
H582        H  0.70523419  0.97692391  0.55868757     0.10600
H583        H  0.68153375  0.94652209  0.45133771     0.10300
H584        H  0.62185145  0.95950341  0.45093853     0.11400
H585        H  0.74946068  0.95286458  0.53214344     0.11500
H586        H  0.74089740  0.96871339  0.45086668     0.13400
H587        H  0.79766663  0.99566130  0.42830304     0.09900
H588        H  0.86218388  0.00358712  0.43160788     0.12000
H589        H  0.86319850  0.94050774  0.53250702     0.08600
H590        H  0.79887476  0.93178750  0.52923510     0.11300
C591        C  0.99309690  0.86534551  0.48803451    -0.03300
C592        C  0.00379913  0.85057228  0.45967296    -0.05900
C593        C  0.00207817  0.81443193  0.46099741    -0.20900
C594        C  0.99016271  0.79249944  0.49090997     0.24800
C595        C  0.97919269  0.80747700  0.51915900    -0.18500
C596        C  0.98066463  0.84353713  0.51767678    -0.08500
C597        C  0.98861814  0.75417663  0.49138914    -0.18800
C598        C  0.99110573  0.73284626  0.52180765    -0.23600
C599        C  0.99134880  0.69484958  0.52240384     0.26800
C600        C  0.00996101  0.67826879  0.55115358    -0.20300
C601        C  0.01240319  0.64302887  0.55180825    -0.10000
C602        C  0.99535256  0.62334567  0.52425472    -0.10500
C603        C  0.97511025  0.63930679  0.49644519    -0.03400
C604        C  0.97334500  0.67485714  0.49532909    -0.18600
H605        H  0.01323591  0.86701673  0.43646809     0.10500
H606        H  0.01036589  0.80358323  0.43873809     0.10600
H607        H  0.96883216  0.79142980  0.54213917     0.15100
H608        H  0.97197790  0.85451392  0.53962707     0.11400
H609        H  0.98752440  0.74361169  0.46583483     0.11500
H610        H  0.99580737  0.74391571  0.54730926     0.13400
H611        H  0.02359660  0.69290001  0.57261793     0.09900
H612        H  0.02795931  0.63116816  0.57368793     0.12000
H613        H  0.96177319  0.62460196  0.47492328     0.08600
H614        H  0.95789797  0.68657925  0.47332274     0.11300
C615        C  0.99872420  0.35914108  0.49711404    -0.03300
C616        C  0.03161416  0.35229238  0.48978957    -0.05900
C617        C  0.03681595  0.31793865  0.48827706    -0.20900
C618        C  0.00957327  0.28971494  0.49483898     0.24800
C619        C  0.97688524  0.29659975  0.50265137    -0.18500
C620        C  0.97154262  0.33081584  0.50368012    -0.08500
C621        C  0.01504430  0.25356338  0.49130368    -0.18800
C622        C  0.99803807  0.22537141  0.51009159    -0.23600
C623        C  0.00128635  0.18882038  0.50559727     0.26800
C624        C  0.99533982  0.16329194  0.53450896    -0.20300
C625        C  0.99596908  0.12827930  0.53079557    -0.10000
C626        C  0.00148342  0.11784292  0.49773843    -0.10500
C627        C  0.00738021  0.14326525  0.46869994    -0.03400
C628        C  0.00757798  0.17847952  0.47262665    -0.18600
H629        H  0.05303141  0.37349395  0.48434885     0.10500
H630        H  0.06215677  0.31338130  0.48187277     0.10600
H631        H  0.95496369  0.27566697  0.50688600     0.10300
H632        H  0.94585838  0.33507971  0.50933496     0.11400
H633        H  0.03419032  0.25024824  0.47340828     0.11500
H634        H  0.98162636  0.22912804  0.53052570     0.13400
H635        H  0.99009386  0.17047595  0.56007196     0.09900
H636        H  0.99136006  0.10911500  0.55352821     0.12000
H637        H  0.01149562  0.13573998  0.44291701     0.08600
H638        H  0.01141522  0.19730983  0.44954677     0.11300
loop_ 
_geom_bond_atom_site_label_1 
_geom_bond_atom_site_label_2 
_geom_bond_distance 
_geom_bond_site_symmetry_2 
_ccdc_geom_bond_type 
N1            C6   1.356       .  A
N1            C5   1.357       .  A
N1           H33   1.034       .  S
N2            C9   1.354       .  A
N2           C10   1.354       .  A
N3            C8   1.356       .  A
N3            C7   1.354       .  A
N3           H34   1.037       .  S
N4           C11   1.352       .  A
N4           C12   1.353       .  A
C5           C13   1.389       .  A
C5           C21   1.425   1_655  A
C6           C22   1.421   1_545  A
C6           C14   1.386       .  A
C7           C15   1.387       .  A
C7           C24   1.418   1_565  A
C8           C23   1.417   1_455  A
C8           C16   1.387       .  A
C9           C21   1.421       .  A
C9           C17   1.388       .  A
C10          C24   1.416       .  A
C10          C18   1.385       .  A
C11          C19   1.387       .  A
C11          C22   1.416       .  A
C12          C20   1.386       .  A
C12          C23   1.414       .  A
C13          C14   1.375       .  A
C13          H25   1.081       .  S
C14          H26   1.082       .  S
C15          C16   1.375       .  A
C15          H27   1.082       .  S
C16          H28   1.082       .  S
C17          C18   1.373       .  A
C17          H29   1.081       .  S
C18          H30   1.082       .  S
C19          C20   1.372       .  A
C19          H31   1.082       .  S
C20          H32   1.082       .  S
C21         C626   1.495       .  S
C22         C578   1.489       .  S
C23         C591   1.489       .  S
C24         C543   1.489       .  S
O35         Ni41   1.941       .  S
O35          C56   1.274       .  A
O36         Ni59   1.925       .  S
O36          C45   1.273       .  A
O37         Ni41   1.907       .  S
O37         Ni59   1.917   1_655  S
O37         Ni53   1.914       .  S
O37          H60   0.967       .  S
C38         C602   1.477   1_455  S
C38          O55   1.278   1_455  A
C38          O47   1.276       .  A
O39         Ni58   1.930       .  S
O39          C45   1.271       .  A
O40         Ni58   1.899       .  S
O40          C42   1.268       .  A
Ni41         O44   1.927       .  S
Ni41         O46   1.910       .  S
C42         C495   1.489       .  S
C42          O52   1.275   1_455  A
O43         Ni59   1.927       .  S
O43          C49   1.278   1_455  A
O44          C49   1.278       .  A
C45         C471   1.492       .  S
O46          C48   1.271       .  A
O47         Ni58   1.924       .  S
C48         C519   1.492       .  S
C48          O54   1.276   1_655  A
C49         C615   1.488       .  S
H50          O51   0.966       .  S
O51         Ni59   1.916       .  S
O51         Ni53   1.915   1_455  S
O51         Ni58   1.912       .  S
O52         Ni53   1.943       .  S
Ni53         O57   1.923       .  S
Ni53         O55   1.926       .  S
O54         Ni59   1.941       .  S
C56         C458   1.496       .  S
C56          O57   1.272       .  A
O61         Ni67   1.927   1_545  S
O61          C82   1.270       .  A
O62         Ni85   1.917       .  S
O62          C71   1.269       .  A
O63         Ni67   1.907       .  S
O63         Ni85   1.910       .  S
O63         Ni79   1.906   1_565  S
O63          H86   0.967       .  S
C64         C375   1.476       .  S
C64          O81   1.278       .  A
C64          O73   1.277       .  A
O65         Ni84   1.929       .  S
O65          C71   1.271   1_545  A
O66         Ni84   1.911       .  S
O66          C68   1.269       .  A
Ni67         O70   1.921       .  S
Ni67         O72   1.902       .  S
C68         C399   1.489       .  S
C68          O78   1.272       .  A
O69         Ni85   1.904       .  S
O69          C75   1.274       .  A
O70          C75   1.277       .  A
C71         C567   1.484       .  S
O72          C74   1.267       .  A
O73         Ni84   1.912       .  S
C74         C423   1.488       .  S
C74          O80   1.273       .  A
C75         C351   1.469       .  S
H76          O77   0.966       .  S
O77         Ni85   1.904   1_545  S
O77         Ni79   1.911       .  S
O77         Ni84   1.904       .  S
O78         Ni79   1.928       .  S
Ni79         O83   1.921       .  S
Ni79         O81   1.919       .  S
O80         Ni85   1.937       .  S
C82         C554   1.484       .  S
C82          O83   1.270       .  A
N87          C92   1.356       .  A
N87          C91   1.354       .  A
N87         H119   1.040       .  S
N88          C95   1.352       .  A
N88          C96   1.353       .  A
N89          C94   1.354       .  A
N89          C93   1.355       .  A
N89         H120   1.040       .  S
N90          C97   1.354       .  A
N90          C98   1.352       .  A
C91          C99   1.386       .  A
C91         C107   1.416   1_565  A
C92         C108   1.419   1_554  A
C92         C100   1.387       .  A
C93         C101   1.386       .  A
C93         C110   1.417       .  A
C94         C109   1.416       .  A
C94         C102   1.387       .  A
C95         C107   1.414       .  A
C95         C103   1.386       .  A
C96         C110   1.416   1_554  A
C96         C104   1.387       .  A
C97         C105   1.387       .  A
C97         C108   1.418       .  A
C98         C106   1.386       .  A
C98         C109   1.414   1_565  A
C99         C100   1.376       .  A
C99         H111   1.082       .  S
C100        H112   1.082       .  S
C101        C102   1.377       .  A
C101        H113   1.082       .  S
C102        H114   1.082       .  S
C103        C104   1.373       .  A
C103        H115   1.082       .  S
C104        H116   1.082       .  S
C105        C106   1.374       .  A
C105        H117   1.082       .  S
C106        H118   1.082       .  S
C107        C434   1.489       .  S
C108        C314   1.500   1_556  S
C109        C410   1.487       .  S
C110        C327   1.496       .  S
N121        C126   1.354       .  A
N121        C125   1.350       .  A
N121        H153   1.040       .  S
N122        C129   1.351       .  A
N122        C130   1.352       .  A
N123        C128   1.353       .  A
N123        C127   1.356       .  A
N123        H154   1.040       .  S
N124        C131   1.354       .  A
N124        C132   1.350       .  A
C125        C133   1.386       .  A
C125        C141   1.412       .  A
C126        C142   1.416   1_655  A
C126        C134   1.387       .  A
C127        C135   1.386       .  A
C127        C144   1.416   1_455  A
C128        C143   1.417   1_556  A
C128        C136   1.388       .  A
C129        C141   1.412   1_556  A
C129        C137   1.387       .  A
C130        C144   1.411       .  A
C130        C138   1.385       .  A
C131        C139   1.385       .  A
C131        C142   1.415       .  A
C132        C140   1.387       .  A
C132        C143   1.414       .  A
C133        C134   1.376       .  A
C133        H145   1.082       .  S
C134        H146   1.082       .  S
C135        C136   1.376       .  A
C135        H147   1.082       .  S
C136        H148   1.082       .  S
C137        C138   1.372       .  A
C137        H149   1.082       .  S
C138        H150   1.082       .  S
C139        C140   1.375       .  A
C139        H151   1.082       .  S
C140        H152   1.082       .  S
C141        C266   1.480       .  S
C142        C530   1.496       .  S
C143        C279   1.485       .  S
C144        C506   1.492       .  S
O155       Ni161   1.933       .  S
O155        C176   1.273       .  A
O156       Ni179   1.929       .  S
O156        C165   1.272   1_554  A
O157       Ni161   1.908   1_556  S
O157       Ni179   1.919   1_556  S
O157       Ni173   1.913       .  S
O157        H180   0.967       .  S
C158        C255   1.480       .  S
C158        O175   1.278       .  A
C158        O167   1.276       .  A
O159       Ni178   1.927       .  S
O159        C165   1.272       .  A
O160       Ni178   1.910       .  S
O160        C162   1.270       .  A
Ni161       O164   1.929       .  S
Ni161       O166   1.898       .  S
C162        C218   1.482       .  S
C162        O172   1.272       .  A
O163       Ni179   1.913       .  S
O163        C169   1.273       .  A
O164        C169   1.277       .  A
C165        C303   1.493       .  S
O166        C168   1.268       .  A
O167       Ni178   1.914   1_554  S
C168        C231   1.484       .  S
C168        O174   1.275       .  A
C169        C290   1.478       .  S
H170        O171   0.966       .  S
O171       Ni179   1.910       .  S
O171       Ni173   1.909   1_554  S
O171       Ni178   1.901   1_554  S
O172       Ni173   1.927       .  S
Ni173       O177   1.918       .  S
Ni173       O175   1.928   1_556  S
O174       Ni179   1.941       .  S
C176        C338   1.487       .  S
C176        O177   1.271   1_554  A
O181       Ni187   1.934       .  S
O181        C202   1.271       .  A
O182       Ni205   1.916       .  S
O182        C191   1.270       .  A
O183       Ni187   1.908       .  S
O183       Ni205   1.910       .  S
O183       Ni199   1.901       .  S
O183        H206   0.966       .  S
C184        C386   1.472       .  S
C184        O201   1.275       .  A
C184        O193   1.278       .  A
O185       Ni204   1.928       .  S
O185        C191   1.271       .  A
O186       Ni204   1.910       .  S
O186        C188   1.269       .  A
Ni187       O190   1.922       .  S
Ni187       O192   1.903       .  S
C188        C447   1.497       .  S
C188        O198   1.276       .  A
O189       Ni205   1.908       .  S
O189        C195   1.275       .  A
O190        C195   1.278       .  A
C191        C207   1.483       .  S
O192        C194   1.267       .  A
O193       Ni204   1.917       .  S
C194        C482   1.495       .  S
C194        O200   1.276       .  A
C195        C362   1.469       .  S
H196        O197   0.966       .  S
O197       Ni205   1.905       .  S
O197       Ni199   1.906       .  S
O197       Ni204   1.903       .  S
O198       Ni199   1.944       .  S
Ni199       O203   1.908       .  S
Ni199       O201   1.912       .  S
O200       Ni205   1.948       .  S
C202        C242   1.471       .  S
C202        O203   1.266       .  A
C207        C208   1.406       .  A
C207        C212   1.406       .  A
C208        C209   1.402       .  A
C208        H221   1.083       .  S
C209        C210   1.405       .  A
C209        H222   1.083       .  S
C210        C211   1.407       .  A
C210        C213   1.489       .  S
C211        C212   1.397       .  A
C211        H223   1.082       .  S
C212        H224   1.083       .  S
C213        C214   1.348       .  D
C213        H225   1.086       .  S
C214        C215   1.487       .  S
C214        H226   1.086       .  S
C215        C216   1.402       .  A
C215        C220   1.409       .  A
C216        C217   1.396       .  A
C216        H227   1.083       .  S
C217        C218   1.405       .  A
C217        H228   1.083       .  S
C218        C219   1.406       .  A
C219        C220   1.402       .  A
C219        H229   1.083       .  S
C220        H230   1.082       .  S
C231        C232   1.407       .  A
C231        C236   1.407       .  A
C232        C233   1.401       .  A
C232        H245   1.083       .  S
C233        C234   1.404       .  A
C233        H246   1.083       .  S
C234        C235   1.405       .  A
C234        C237   1.485       .  S
C235        C236   1.395       .  A
C235        H247   1.082       .  S
C236        H248   1.083       .  S
C237        C238   1.347       .  D
C237        H249   1.087       .  S
C238        C239   1.480       .  S
C238        H250   1.086       .  S
C239        C240   1.402       .  A
C239        C244   1.407       .  A
C240        C241   1.396       .  A
C240        H251   1.083       .  S
C241        C242   1.402       .  A
C241        H252   1.083       .  S
C242        C243   1.403       .  A
C243        C244   1.400       .  A
C243        H253   1.083       .  S
C244        H254   1.083       .  S
C255        C256   1.406       .  A
C255        C260   1.407       .  A
C256        C257   1.392       .  A
C256        H269   1.083       .  S
C257        C258   1.400       .  A
C257        H270   1.084       .  S
C258        C259   1.407       .  A
C258        C261   1.478       .  S
C259        C260   1.402       .  A
C259        H271   1.082       .  S
C260        H272   1.083   1_554  S
C261        C262   1.345       .  D
C261        H273   1.084       .  S
C262        C263   1.486       .  S
C262        H274   1.086   1_554  S
C263        C264   1.405   1_554  A
C263        C268   1.409       .  A
C264        C265   1.399       .  A
C264        H275   1.083       .  S
C265        C266   1.402   1_556  A
C265        H276   1.083       .  S
C266        C267   1.399       .  A
C267        C268   1.392       .  A
C267        H277   1.084       .  S
C268        H278   1.080       .  S
C279        C280   1.400       .  A
C279        C284   1.404   1_554  A
C280        C281   1.393       .  A
C280        H293   1.083       .  S
C281        C282   1.405       .  A
C281        H294   1.083       .  S
C282        C283   1.410   1_554  A
C282        C285   1.487       .  S
C283        C284   1.403       .  A
C283        H295   1.081       .  S
C284        H296   1.083       .  S
C285        C286   1.349       .  D
C285        H297   1.085       .  S
C286        C287   1.490       .  S
C286        H298   1.084   1_554  S
C287        C288   1.406   1_554  A
C287        C292   1.407       .  A
C288        C289   1.404       .  A
C288        H299   1.083       .  S
C289        C290   1.405   1_556  A
C289        H300   1.083       .  S
C290        C291   1.403       .  A
C291        C292   1.393       .  A
C291        H301   1.083       .  S
C292        H302   1.081       .  S
C303        C304   1.406       .  A
C303        C308   1.410   1_556  A
C304        C305   1.395       .  A
C304        H317   1.083       .  S
C305        C306   1.403       .  A
C305        H318   1.084       .  S
C306        C307   1.412   1_556  A
C306        C309   1.496       .  S
C307        C308   1.411       .  A
C307        H319   1.081       .  S
C308        H320   1.083       .  S
C309        C310   1.351   1_556  D
C309        H321   1.084       .  S
C310        C311   1.501       .  S
C310        H322   1.085       .  S
C311        C312   1.407       .  A
C311        C316   1.412   1_554  A
C312        C313   1.404       .  A
C312        H323   1.083       .  S
C313        C314   1.407       .  A
C313        H324   1.083       .  S
C314        C315   1.404   1_554  A
C315        C316   1.400       .  A
C315        H325   1.083       .  S
C316        H326   1.080       .  S
C327        C328   1.406       .  A
C327        C332   1.405   1_556  A
C328        C329   1.402       .  A
C328        H341   1.083       .  S
C329        C330   1.404       .  A
C329        H342   1.083       .  S
C330        C331   1.408   1_556  A
C330        C333   1.490       .  S
C331        C332   1.400       .  A
C331        H343   1.082       .  S
C332        H344   1.083       .  S
C333        C334   1.348   1_556  D
C333        H345   1.086       .  S
C334        C335   1.488       .  S
C334        H346   1.087       .  S
C335        C336   1.401       .  A
C335        C340   1.409   1_554  A
C336        C337   1.396       .  A
C336        H347   1.084       .  S
C337        C338   1.407       .  A
C337        H348   1.083       .  S
C338        C339   1.407   1_554  A
C339        C340   1.406       .  A
C339        H349   1.083       .  S
C340        H350   1.082       .  S
C351        C352   1.404       .  A
C351        C356   1.404       .  A
C352        C353   1.391       .  A
C352        H365   1.083       .  S
C353        C354   1.400       .  A
C353        H366   1.084       .  S
C354        C355   1.406       .  A
C354        C357   1.473       .  S
C355        C356   1.396       .  A
C355        H367   1.082       .  S
C356        H368   1.083       .  S
C357        C358   1.344       .  D
C357        H369   1.086       .  S
C358        C359   1.477       .  S
C358        H370   1.085       .  S
C359        C360   1.403       .  A
C359        C364   1.405       .  A
C360        C361   1.398       .  A
C360        H371   1.083       .  S
C361        C362   1.404       .  A
C361        H372   1.083       .  S
C362        C363   1.402       .  A
C363        C364   1.390       .  A
C363        H373   1.083       .  S
C364        H374   1.082       .  S
C375        C376   1.406       .  A
C375        C380   1.406       .  A
C376        C377   1.389       .  A
C376        H389   1.083       .  S
C377        C378   1.398       .  A
C377        H390   1.084       .  S
C378        C379   1.407       .  A
C378        C381   1.473       .  S
C379        C380   1.399       .  A
C379        H391   1.082       .  S
C380        H392   1.083       .  S
C381        C382   1.342       .  D
C381        H393   1.087       .  S
C382        C383   1.476       .  S
C382        H394   1.086       .  S
C383        C384   1.402       .  A
C383        C388   1.405       .  A
C384        C385   1.400       .  A
C384        H395   1.083       .  S
C385        C386   1.407       .  A
C385        H396   1.083       .  S
C386        C387   1.402       .  A
C387        C388   1.388       .  A
C387        H397   1.083       .  S
C388        H398   1.083       .  S
C399        C400   1.406       .  A
C399        C404   1.407       .  A
C400        C401   1.401       .  A
C400        H413   1.083       .  S
C401        C402   1.406       .  A
C401        H414   1.083       .  S
C402        C403   1.411       .  A
C402        C405   1.498       .  S
C403        C404   1.400       .  A
C403        H415   1.079       .  S
C404        H416   1.083       .  S
C405        C406   1.351       .  D
C405        H417   1.084       .  S
C406        C407   1.494       .  S
C406        H418   1.082       .  S
C407        C408   1.406       .  A
C407        C412   1.411       .  A
C408        C409   1.398       .  A
C408        H419   1.083       .  S
C409        C410   1.400       .  A
C409        H420   1.083       .  S
C410        C411   1.403       .  A
C411        C412   1.403       .  A
C411        H421   1.083       .  S
C412        H422   1.081       .  S
C423        C424   1.407       .  A
C423        C428   1.407       .  A
C424        C425   1.403   1_565  A
C424        H437   1.083       .  S
C425        C426   1.406       .  A
C425        H438   1.083       .  S
C426        C427   1.407       .  A
C426        C429   1.493       .  S
C427        C428   1.397   1_545  A
C427        H439   1.081       .  S
C428        H440   1.083       .  S
C429        C430   1.350       .  D
C429        H441   1.085       .  S
C430        C431   1.490       .  S
C430        H442   1.085   1_545  S
C431        C432   1.405   1_545  A
C431        C436   1.410       .  A
C432        C433   1.396       .  A
C432        H443   1.083       .  S
C433        C434   1.401   1_565  A
C433        H444   1.083       .  S
C434        C435   1.405       .  A
C435        C436   1.403       .  A
C435        H445   1.083       .  S
C436        H446   1.081       .  S
C447        C448   1.408       .  A
C447        C452   1.410       .  A
C448        C449   1.407       .  A
C448        H461   1.083       .  S
C449        C450   1.409       .  A
C449        H462   1.083       .  S
C450        C451   1.408       .  A
C450        C453   1.502       .  S
C451        C452   1.401       .  A
C451        H463   1.081       .  S
C452        H464   1.083       .  S
C453        C454   1.355       .  D
C453        H465   1.085       .  S
C454        C455   1.501       .  S
C454        H466   1.085       .  S
C455        C456   1.408       .  A
C455        C460   1.409       .  A
C456        C457   1.404       .  A
C456        H467   1.083       .  S
C457        C458   1.406       .  A
C457        H468   1.083       .  S
C458        C459   1.409       .  A
C459        C460   1.405       .  A
C459        H469   1.083       .  S
C460        H470   1.081       .  S
C471        C472   1.405       .  A
C471        C476   1.409       .  A
C472        C473   1.405       .  A
C472        H485   1.083       .  S
C473        C474   1.409       .  A
C473        H486   1.083       .  S
C474        C475   1.408       .  A
C474        C477   1.499       .  S
C475        C476   1.400       .  A
C475        H487   1.081       .  S
C476        H488   1.083       .  S
C477        C478   1.355       .  D
C477        H489   1.083       .  S
C478        C479   1.500       .  S
C478        H490   1.084       .  S
C479        C480   1.409       .  A
C479        C484   1.408       .  A
C480        C481   1.405       .  A
C480        H491   1.083       .  S
C481        C482   1.406       .  A
C481        H492   1.083       .  S
C482        C483   1.409       .  A
C483        C484   1.400       .  A
C483        H493   1.083       .  S
C484        H494   1.080       .  S
C495        C496   1.407       .  A
C495        C500   1.408   1_455  A
C496        C497   1.394       .  A
C496        H509   1.083       .  S
C497        C498   1.402       .  A
C497        H510   1.084       .  S
C498        C499   1.410   1_455  A
C498        C501   1.491       .  S
C499        C500   1.406       .  A
C499        H511   1.081       .  S
C500        H512   1.083       .  S
C501        C502   1.348   1_455  D
C501        H513   1.086       .  S
C502        C503   1.492       .  S
C502        H514   1.085       .  S
C503        C504   1.405       .  A
C503        C508   1.410   1_655  A
C504        C505   1.402       .  A
C504        H515   1.083       .  S
C505        C506   1.405       .  A
C505        H516   1.083       .  S
C506        C507   1.402   1_655  A
C507        C508   1.398       .  A
C507        H517   1.083       .  S
C508        H518   1.082       .  S
C519        C520   1.408       .  A
C519        C524   1.408   1_655  A
C520        C521   1.399       .  A
C520        H533   1.083       .  S
C521        C522   1.404       .  A
C521        H534   1.083       .  S
C522        C523   1.410   1_655  A
C522        C525   1.495       .  S
C523        C524   1.405       .  A
C523        H535   1.081       .  S
C524        H536   1.083       .  S
C525        C526   1.351   1_655  D
C525        H537   1.085       .  S
C526        C527   1.496       .  S
C526        H538   1.085       .  S
C527        C528   1.406       .  A
C527        C532   1.410   1_455  A
C528        C529   1.402       .  A
C528        H539   1.083       .  S
C529        C530   1.404       .  A
C529        H540   1.083       .  S
C530        C531   1.405   1_455  A
C531        C532   1.402       .  A
C531        H541   1.083       .  S
C532        H542   1.081       .  S
C543        C544   1.400       .  A
C543        C548   1.405       .  A
C544        C545   1.396       .  A
C544        H557   1.083   1_545  S
C545        C546   1.406       .  A
C545        H558   1.083   1_545  S
C546        C547   1.411       .  A
C546        C549   1.492       .  S
C547        C548   1.405       .  A
C547        H559   1.080       .  S
C548        H560   1.083       .  S
C549        C550   1.351       .  D
C549        H561   1.084       .  S
C550        C551   1.496       .  S
C550        H562   1.084       .  S
C551        C552   1.407       .  A
C551        C556   1.408       .  A
C552        C553   1.405       .  A
C552        H563   1.083       .  S
C553        C554   1.406       .  A
C553        H564   1.083       .  S
C554        C555   1.405       .  A
C555        C556   1.397       .  A
C555        H565   1.083       .  S
C556        H566   1.081       .  S
C567        C568   1.405       .  A
C567        C572   1.407       .  A
C568        C569   1.396       .  A
C568        H581   1.083       .  S
C569        C570   1.402       .  A
C569        H582   1.083       .  S
C570        C571   1.409       .  A
C570        C573   1.488       .  S
C571        C572   1.404       .  A
C571        H583   1.082       .  S
C572        H584   1.083       .  S
C573        C574   1.348       .  D
C573        H585   1.085       .  S
C574        C575   1.491       .  S
C574        H586   1.086       .  S
C575        C576   1.405       .  A
C575        C580   1.410       .  A
C576        C577   1.399       .  A
C576        H587   1.083       .  S
C577        C578   1.402       .  A
C577        H588   1.083   1_565  S
C578        C579   1.403       .  A
C579        C580   1.400       .  A
C579        H589   1.083       .  S
C580        H590   1.081       .  S
C591        C592   1.403   1_655  A
C591        C596   1.402       .  A
C592        C593   1.402       .  A
C592        H605   1.083       .  S
C593        C594   1.406   1_455  A
C593        H606   1.083       .  S
C594        C595   1.408       .  A
C594        C597   1.491       .  S
C595        C596   1.399       .  A
C595        H607   1.082       .  S
C596        H608   1.083       .  S
C597        C598   1.349       .  D
C597        H609   1.086       .  S
C598        C599   1.488       .  S
C598        H610   1.086       .  S
C599        C600   1.404   1_655  A
C599        C604   1.409       .  A
C600        C601   1.398       .  A
C600        H611   1.083       .  S
C601        C602   1.404   1_455  A
C601        H612   1.084       .  S
C602        C603   1.403       .  A
C603        C604   1.403       .  A
C603        H613   1.083       .  S
C604        H614   1.082       .  S
C615        C616   1.407   1_655  A
C615        C620   1.407       .  A
C616        C617   1.404       .  A
C616        H629   1.083       .  S
C617        C618   1.406       .  A
C617        H630   1.083       .  S
C618        C619   1.406   1_455  A
C618        C621   1.491       .  S
C619        C620   1.398       .  A
C619        H631   1.082       .  S
C620        H632   1.083       .  S
C621        C622   1.349   1_455  D
C621        H633   1.086       .  S
C622        C623   1.490   1_655  S
C622        H634   1.086       .  S
C623        C624   1.405   1_455  A
C623        C628   1.408       .  A
C624        C625   1.399       .  A
C624        H635   1.083       .  S
C625        C626   1.404   1_655  A
C625        H636   1.083       .  S
C626        C627   1.405       .  A
C627        C628   1.403       .  A
C627        H637   1.083       .  S
C628        H638   1.082       .  S
