geometry optimzed in LAMMPS
_audit_creation_date              2020-12-01 
_audit_creation_method            'lammps2cif' 
_symmetry_space_group_name_H-M    'P1' 
_symmetry_Int_Tables_number       1 
_symmetry_cell_setting            triclinic 
loop_ 
_symmetry_equiv_pos_as_xyz 
  x,y,z 
_cell_length_a                    33.84890681 
_cell_length_b                    33.64225510241998 
_cell_length_c                    31.9315208236237 
_cell_angle_alpha                 89.42848437993784 
_cell_angle_beta                  89.95292726708259 
_cell_angle_gamma                 90.26630017505137 
loop_ 
_atom_site_label 
_atom_site_type_symbol 
_atom_site_fract_x 
_atom_site_fract_y 
_atom_site_fract_z 
_atom_site_charge 
O1          O  0.86780529  0.41219173  0.57122002    -0.56300
C2          C  0.89848816  0.34705553  0.67462734     0.76400
O3          O  0.83574001  0.46490182  0.68983841    -0.57400
C4          C  0.84388329  0.43960255  0.56149037     0.76300
C5          C  0.77195297  0.36312281  0.65089491     0.78700
Cd6        Cd  0.84495529  0.40615227  0.64451253     1.37500
O7          O  0.89686300  0.35593959  0.63599616    -0.56300
O8          O  0.79840969  0.35563426  0.62424144    -0.55100
C9          C  0.87216486  0.47393321  0.69059398     0.78700
O10         O  0.77908094  0.39136009  0.67582663    -0.57400
O11         O  0.87455234  0.36479068  0.69842000    -0.55900
O12         O  0.82079428  0.45116391  0.58998134    -0.55900
O13         O  0.89505551  0.45112149  0.67092113    -0.55100
O14         O  0.59349443  0.15880085  0.57699289    -0.56300
C15         C  0.64029500  0.11850983  0.68995882     0.76400
O16         O  0.61395009  0.24704764  0.67592000    -0.57400
C17         C  0.56806439  0.18424780  0.56550939     0.76300
C18         C  0.51921293  0.16422955  0.68862573     0.78700
Cd19       Cd  0.59436052  0.18022790  0.65054769     1.37500
O20         O  0.63006971  0.11632893  0.65188687    -0.56300
O21         O  0.53475421  0.14223085  0.66141701    -0.55100
C22         C  0.64473448  0.24874901  0.65326716     0.78700
O23         O  0.53860175  0.19499539  0.69897939    -0.57400
O24         O  0.63039479  0.14981878  0.70881936    -0.55900
O25         O  0.55622479  0.20809335  0.59317934    -0.55900
O26         O  0.65148028  0.21915866  0.63026782    -0.55100
O27         O  0.62219981  0.83963479  0.32138963    -0.56300
C28         C  0.56270611  0.76706624  0.40221671     0.76400
O29         O  0.53954592  0.77286713  0.25802730    -0.57400
C30         C  0.63204938  0.83937456  0.28305681     0.76300
C31         C  0.63726745  0.70790590  0.30357315     0.78700
Cd32       Cd  0.58740377  0.77482788  0.31706816     1.37500
O33         O  0.58934102  0.79169698  0.39132419    -0.56300
O34         O  0.64891030  0.73964514  0.32060512    -0.55100
C35         C  0.51995777  0.80214708  0.27150358     0.78700
O36         O  0.60099123  0.70583474  0.29370438    -0.57400
O37         O  0.54883273  0.74498260  0.37381764    -0.55900
O38         O  0.62449782  0.80807994  0.26298603    -0.55900
O39         O  0.52878153  0.81438515  0.30756626    -0.55100
O40         O  0.89788358  0.57101496  0.30954012    -0.56300
C41         C  0.83331820  0.51058121  0.39517296     0.76400
O42         O  0.76153748  0.55714189  0.28844400    -0.57400
C43         C  0.89219977  0.59474170  0.27910392     0.76300
C44         C  0.84262666  0.48087145  0.25312523     0.78700
Cd45       Cd  0.83007726  0.54378532  0.31110149     1.37500
O46         O  0.85208415  0.54181419  0.38503113    -0.56300
O47         O  0.87040703  0.49878222  0.27144015    -0.55100
C48         C  0.76093868  0.59200033  0.30291852     0.78700
O49         O  0.80785360  0.49167388  0.26186236    -0.57400
O50         O  0.81215203  0.49555434  0.36682067    -0.55900
O51         O  0.85725047  0.59593829  0.26513332    -0.55900
O52         O  0.79132263  0.60349150  0.32252155    -0.55100
O53         O  0.43532783  0.82363930  0.64124246    -0.56300
C54         C  0.49916000  0.75937434  0.57090648     0.76400
O55         O  0.51160329  0.75984038  0.71930840    -0.57400
C56         C  0.41861999  0.82529781  0.67655997     0.76300
C57         C  0.42732942  0.68792634  0.65924472     0.78700
Cd58       Cd  0.47037173  0.76118644  0.65481506     1.37500
O59         O  0.47305845  0.78371686  0.58257304    -0.56300
O60         O  0.41796384  0.71622663  0.63502173    -0.55100
C61         C  0.53974349  0.77989454  0.70355565     0.78700
O62         O  0.45731939  0.69324559  0.68220613    -0.57400
O63         O  0.51114481  0.73449919  0.59807846    -0.55900
O64         O  0.42424552  0.79620566  0.70116044    -0.55900
O65         O  0.53599576  0.79007773  0.66560139    -0.55100
O66         O  0.20704677  0.52132685  0.59497891    -0.56300
C67         C  0.18388364  0.58570222  0.69736158     0.76400
O68         O  0.24773256  0.47061182  0.71870650    -0.57400
C69         C  0.22929811  0.49367707  0.58267663     0.76300
C70         C  0.30850986  0.56622382  0.66322294     0.78700
Cd71       Cd  0.23475663  0.52465501  0.66591353     1.37500
O72         O  0.17582290  0.56688477  0.66428055    -0.56300
O73         O  0.27996324  0.57468386  0.63929538    -0.55100
C74         C  0.21162741  0.46086883  0.72189077     0.78700
O75         O  0.30356186  0.53716000  0.68829850    -0.57400
O76         O  0.21653052  0.57738309  0.71451962    -0.55900
O77         O  0.25343006  0.47987753  0.60927942    -0.55900
O78         O  0.18783285  0.47962574  0.69864596    -0.55100
O79         O  0.14835532  0.40386987  0.32476675    -0.56300
C80         C  0.22383038  0.43922599  0.41114274     0.76400
O81         O  0.29004981  0.41050379  0.30524105    -0.57400
C82         C  0.15015656  0.37707697  0.29732659     0.76300
C83         C  0.20896497  0.48759639  0.27254759     0.78700
Cd84       Cd  0.21963109  0.41916721  0.32444369     1.37500
O85         O  0.19991695  0.41300968  0.39828975    -0.56300
O86         O  0.19977700  0.48709002  0.31087052    -0.55100
C87         C  0.28971282  0.37347301  0.31270352     0.78700
O88         O  0.22526409  0.45682020  0.25828115    -0.57400
O89         O  0.24637930  0.45507478  0.38410183    -0.55900
O90         O  0.18423680  0.36841786  0.28411750    -0.55900
O91         O  0.25770506  0.35877417  0.32647266    -0.55100
O92         O  0.42292382  0.13711648  0.31718855    -0.56300
C93         C  0.49916487  0.19099137  0.39879678     0.76400
O94         O  0.52501423  0.21140632  0.26785788    -0.57400
C95         C  0.41776142  0.13541122  0.27790135     0.76300
C96         C  0.41662467  0.26076383  0.30864747     0.78700
Cd97       Cd  0.46841973  0.19418117  0.31470356     1.37500
O98         O  0.47378189  0.16613798  0.38612839    -0.56300
O99         O  0.40864769  0.22977747  0.32965764    -0.55100
C100        C  0.53504225  0.17537557  0.26353544     0.78700
O101        O  0.45029412  0.26251301  0.29132248    -0.57400
O102        O  0.50984387  0.21739150  0.37262379    -0.55900
O103        O  0.43493750  0.16208697  0.25629923    -0.55900
O104        O  0.51571727  0.14960213  0.28418248    -0.55100
O105        O  0.67755121  0.86022410  0.82354479    -0.56300
C106        C  0.72988176  0.94226227  0.89886171     0.76400
O107        O  0.79755003  0.89164398  0.78648687    -0.57400
C108        C  0.67274201  0.85494115  0.78465704     0.76300
C109        C  0.70990832  0.98096404  0.77204109     0.78700
Cd110      Cd  0.73154691  0.90945756  0.81601696     1.37500
O111        O  0.70460182  0.91694881  0.88694323    -0.56300
O112        O  0.68628285  0.96064435  0.79428843    -0.55100
C113        C  0.80132964  0.86147700  0.81023075     0.78700
O114        O  0.74469067  0.96745767  0.76834274    -0.57400
O115        O  0.75665013  0.95151641  0.87279682    -0.55900
O116        O  0.69617982  0.87380230  0.76068568    -0.55900
O117        O  0.77447236  0.85545119  0.83706667    -0.55100
O118        O  0.94254137  0.61160236  0.81592620    -0.56300
C119        C  0.00662497  0.67987862  0.89821015     0.76400
O120        O  0.03082797  0.69241124  0.76238343    -0.57400
C121        C  0.93581268  0.61158459  0.77687720     0.76300
C122        C  0.92366519  0.74190920  0.81005927     0.78700
Cd123      Cd  0.97763771  0.67636652  0.81434928     1.37500
O124        O  0.98138181  0.65393887  0.88755705    -0.56300
O125        O  0.91605105  0.70970361  0.82923141    -0.55100
C126        C  0.05101932  0.66211957  0.77264566     0.78700
O127        O  0.95748408  0.74477713  0.79312659    -0.57400
O128        O  0.01737906  0.70456401  0.87026974    -0.55900
O129        O  0.94606547  0.64239319  0.75647731    -0.55900
O130        O  0.03672467  0.63979368  0.80090896    -0.55100
O131        O  0.70473008  0.04410003  0.07156419    -0.56300
C132        C  0.66194964  0.10156158  0.17417205     0.76400
O133        O  0.73075741  0.98781910  0.19503861    -0.57400
C134        C  0.72314144  0.01218003  0.06441864     0.76300
C135        C  0.79246343  0.08852921  0.15531400     0.78700
Cd136      Cd  0.72010024  0.04543349  0.14709399     1.37500
O137        O  0.66130201  0.08731599  0.13759813    -0.56300
O138        O  0.76999536  0.09228662  0.12396413    -0.55100
C139        C  0.69456612  0.97786686  0.19538483     0.78700
O140        O  0.78229263  0.06320545  0.18294368    -0.57400
O141        O  0.69089795  0.09176782  0.19700328    -0.55900
O142        O  0.74017775  0.99595028  0.09537718    -0.55900
O143        O  0.67139191  0.99962718  0.17441122    -0.55100
O144        O  0.92230722  0.34344588  0.13541221    -0.56300
C145        C  0.99562872  0.27250785  0.07438898     0.76400
O146        O  0.00233784  0.27364793  0.21449762    -0.57400
C147        C  0.90445099  0.34604067  0.17008920     0.76300
C148        C  0.90946025  0.21193215  0.16064147     0.78700
Cd149      Cd  0.95705129  0.28183656  0.15368350     1.37500
O150        O  0.96646374  0.29534155  0.07934234    -0.56300
O151        O  0.90360580  0.23849216  0.13311898    -0.55100
C152        C  0.01850732  0.30738460  0.20916011     0.78700
O153        O  0.93751423  0.21765892  0.18612981    -0.57400
O154        O  0.00679910  0.25294233  0.10628144    -0.55900
O155        O  0.90891616  0.31749883  0.19572211    -0.55900
O156        O  0.00705494  0.32755590  0.17791928    -0.55100
O157        O  0.34738263  0.03784607  0.87312979    -0.56300
C158        C  0.38450727  0.08638100  0.76413217     0.76400
O159        O  0.31280271  0.97341408  0.75399903    -0.57400
C160        C  0.33025555  0.00644518  0.88579384     0.76300
C161        C  0.25345218  0.07122570  0.79973243     0.78700
Cd162      Cd  0.32793775  0.03113614  0.79970114     1.37500
O163        O  0.39047425  0.06824276  0.79842652    -0.56300
O164        O  0.28123694  0.07929604  0.82467043    -0.55100
C165        C  0.34836906  0.96178032  0.75326967     0.78700
O166        O  0.25999198  0.04408202  0.77337111    -0.57400
O167        O  0.35138202  0.08008021  0.74697285    -0.55900
O168        O  0.31300873  0.98602219  0.85815636    -0.55900
O169        O  0.37292158  0.98131386  0.77468966    -0.55100
O170        O  0.14967328  0.29969681  0.82468050    -0.56300
C171        C  0.06340782  0.26203885  0.90824976     0.76400
O172        O  0.05222139  0.25273252  0.75493595    -0.57400
C173        C  0.13542401  0.32948781  0.80552999     0.76300
C174        C  0.13085885  0.18798261  0.80897404     0.78700
Cd175      Cd  0.08755518  0.26008898  0.82216160     1.37500
O176        O  0.09043156  0.28466923  0.89423900    -0.56300
O177        O  0.13711736  0.21877279  0.78691600    -0.55100
C178        C  0.02120227  0.26994425  0.76723218     0.78700
O179        O  0.10301518  0.18987881  0.83524768    -0.57400
O180        O  0.04840566  0.23780064  0.88267583    -0.55900
O181        O  0.09929181  0.32729531  0.79582671    -0.55900
O182        O  0.02010993  0.27964079  0.80531504    -0.55100
O183        O  0.13876701  0.62583926  0.14618443    -0.56300
C184        C  0.07009355  0.68487016  0.06707622     0.76400
O185        O  0.04970793  0.69636997  0.20937508    -0.57400
C186        C  0.14403052  0.62207101  0.18525833     0.76300
C187        C  0.15003381  0.75308876  0.15638970     0.78700
Cd188      Cd  0.09808905  0.68555717  0.15160984     1.37500
O189        O  0.09572885  0.66044513  0.08010547    -0.56300
O190        O  0.15976505  0.72067018  0.13979672    -0.55100
C191        C  0.02713117  0.66843961  0.19755588     0.78700
O192        O  0.11492903  0.75536461  0.16999672    -0.57400
O193        O  0.05830300  0.71028563  0.09322499    -0.55900
O194        O  0.12868401  0.64826134  0.20819134    -0.55900
O195        O  0.03726775  0.65012501  0.16494818    -0.55100
O196        O  0.36082305  0.93812500  0.07535570    -0.56300
C197        C  0.39939979  0.88729907  0.17961904     0.76400
O198        O  0.32309302  0.97721365  0.20425975    -0.57400
C199        C  0.33104861  0.95570308  0.06011160     0.76300
C200        C  0.26907212  0.87688298  0.15791399     0.78700
Cd201      Cd  0.33401160  0.93095280  0.14603375     1.37500
O202        O  0.39086973  0.88487654  0.14111857    -0.56300
O203        O  0.30197557  0.86679378  0.14281022    -0.55100
C204        C  0.34691529  0.00335242  0.19030731     0.78700
O205        O  0.26542338  0.91311488  0.16763782    -0.57400
O206        O  0.37804975  0.90965865  0.20159086    -0.55900
O207        O  0.30217721  0.96121324  0.08458354    -0.55900
O208        O  0.36219196  0.99710038  0.15484423    -0.55100
C209        C  0.17909995  0.78600263  0.16030358    -0.03800
C210        C  0.16893884  0.82546561  0.14935807    -0.00900
C211        C  0.19770880  0.85599959  0.15092274     0.04100
C212        C  0.23687461  0.84711096  0.16305797    -0.03800
C213        C  0.24631258  0.80808661  0.17628328    -0.00900
C214        C  0.21792013  0.77754691  0.17398163     0.04100
C215        C  0.12987138  0.83414974  0.13314377     0.38700
C216        C  0.28507261  0.79936106  0.19347525     0.38700
C217        C  0.22921104  0.73719824  0.18507724     0.37100
C218        C  0.18732435  0.89610724  0.13815637     0.37100
N219        N  0.23867687  0.70503809  0.19323980    -0.37700
N220        N  0.17901747  0.92814845  0.12813552    -0.37700
N221        N  0.31571516  0.79228581  0.20767388    -0.37100
N222        N  0.09887371  0.84109084  0.11975141    -0.37100
C223        C  0.33034608  0.96948094  0.01585031    -0.03800
C224        C  0.29654908  0.96318217  0.99080734    -0.00900
C225        C  0.29641664  0.97548618  0.94846366     0.04100
C226        C  0.33013471  0.99427677  0.93071806    -0.03800
C227        C  0.36356724  0.00148103  0.95620896    -0.00900
C228        C  0.36367077  0.98903953  0.99848487     0.04100
C229        C  0.26213618  0.94299921  0.00816033     0.38700
C230        C  0.39842084  0.02099157  0.93901113     0.38700
C231        C  0.39788732  0.99742109  0.02441421     0.37100
C232        C  0.26095455  0.96964712  0.92365249     0.37100
N233        N  0.42514982  0.00410146  0.04508025    -0.37700
N234        N  0.23267242  0.96496153  0.90392062    -0.37700
N235        N  0.42619400  0.03669487  0.92547666    -0.37100
N236        N  0.23465626  0.92694134  0.02191087    -0.37100
C237        C  0.15655222  0.15251981  0.80603720    -0.03800
C238        C  0.16916470  0.13846040  0.76666209    -0.00900
C239        C  0.19836774  0.10873423  0.76436148     0.04100
C240        C  0.21597905  0.09389708  0.80141204    -0.03800
C241        C  0.20066746  0.10524127  0.84071816    -0.00900
C242        C  0.17132748  0.13463961  0.84307006     0.04100
C243        C  0.15279834  0.15515621  0.72840382     0.38700
C244        C  0.21536842  0.08693137  0.87902127     0.38700
C245        C  0.15897124  0.14869458  0.88388140     0.37100
C246        C  0.21140608  0.09486860  0.72378666     0.37100
N247        N  0.14942044  0.16007222  0.91642524    -0.37700
N248        N  0.22155501  0.08356772  0.69141478    -0.37700
N249        N  0.22691548  0.07239301  0.90962479    -0.37100
N250        N  0.13997883  0.16851665  0.69779311    -0.37100
C251        C  0.04904833  0.26458357  0.95204147    -0.03800
C252        C  0.04209171  0.22966919  0.97600735    -0.00900
C253        C  0.02606208  0.23218507  0.01670990     0.04100
C254        C  0.01571561  0.26956933  0.03321057    -0.03800
C255        C  0.02362351  0.30451185  0.00961520    -0.00900
C256        C  0.04055328  0.30205962  0.96942489     0.04100
C257        C  0.05171134  0.19103910  0.95901828     0.38700
C258        C  0.01489281  0.34327929  0.02688567     0.38700
C259        C  0.04769041  0.33826630  0.94540697     0.37100
C260        C  0.01928149  0.19608440  0.04096474     0.37100
N261        N  0.05342579  0.36719046  0.92639353    -0.37700
N262        N  0.01421868  0.16718374  0.06023326    -0.37700
N263        N  0.00782859  0.37414095  0.04065191    -0.37100
N264        N  0.05916057  0.16015427  0.94554393    -0.37100
C265        C  0.82773221  0.11428839  0.15965088    -0.03800
C266        C  0.83441081  0.13511215  0.19728577    -0.00900
C267        C  0.86280412  0.16590944  0.19845218     0.04100
C268        C  0.88447074  0.17590411  0.16203870    -0.03800
C269        C  0.87954200  0.15345136  0.12530846    -0.00900
C270        C  0.85155150  0.12248343  0.12422469     0.04100
C271        C  0.80992747  0.12721789  0.23380012     0.38700
C272        C  0.90258562  0.16294614  0.08812416     0.38700
C273        C  0.84694165  0.09942827  0.08631485     0.37100
C274        C  0.86718815  0.18949361  0.23598648     0.37100
N275        N  0.84338519  0.08114159  0.05602835    -0.37700
N276        N  0.87039806  0.20842238  0.26586963    -0.37700
N277        N  0.92070192  0.17078977  0.05840120    -0.37100
N278        N  0.79027658  0.12098638  0.26283394    -0.37100
C279        C  0.05444279  0.68360550  0.02351911    -0.03800
C280        C  0.04319695  0.71914707  0.00266355    -0.00900
C281        C  0.02791091  0.71792557  0.96165461     0.04100
C282        C  0.02314128  0.68117731  0.94118218    -0.03800
C283        C  0.03487857  0.64571742  0.96159667    -0.00900
C284        C  0.05029990  0.64683936  0.00257682     0.04100
C285        C  0.04789054  0.75735892  0.02286394     0.38700
C286        C  0.03260689  0.60804766  0.93985138     0.38700
C287        C  0.06077549  0.60973261  0.02328064     0.37100
C288        C  0.01657302  0.75470824  0.94083627     0.37100
N289        N  0.06907547  0.58001008  0.03950813    -0.37700
N290        N  0.00778667  0.78408316  0.92421087    -0.37700
N291        N  0.03097603  0.57805876  0.92246622    -0.37100
N292        N  0.05140590  0.78784517  0.03895740    -0.37100
C293        C  0.72462452  0.99447144  0.02198464    -0.03800
C294        C  0.73318739  0.01847711  0.98650913    -0.00900
C295        C  0.73485612  0.00149086  0.94629482     0.04100
C296        C  0.72811248  0.96025858  0.94118260    -0.03800
C297        C  0.71941434  0.93632199  0.97668048    -0.00900
C298        C  0.71777605  0.95331010  0.01684692     0.04100
C299        C  0.74171823  0.06050229  0.99143583     0.38700
C300        C  0.71317282  0.89385281  0.97220372     0.38700
C301        C  0.70824266  0.92830681  0.05279370     0.37100
C302        C  0.74246473  0.02686270  0.91010407     0.37100
N303        N  0.70077098  0.90818890  0.08134882    -0.37700
N304        N  0.74849265  0.04719316  0.88132315    -0.37700
N305        N  0.70817569  0.86000232  0.96860727    -0.37100
N306        N  0.74866505  0.09398065  0.99533371    -0.37100
C307        C  0.83390063  0.83258781  0.80586317    -0.03800
C308        C  0.82431851  0.79258100  0.79756989    -0.00900
C309        C  0.85387909  0.76335570  0.79797792     0.04100
C310        C  0.89350143  0.77377419  0.80692151    -0.03800
C311        C  0.90335103  0.81409059  0.81411465    -0.00900
C312        C  0.87360559  0.84352830  0.81304380     0.04100
C313        C  0.78377501  0.78144169  0.78825308     0.38700
C314        C  0.94341080  0.82496116  0.82551545     0.38700
C315        C  0.88354988  0.88471748  0.82111381     0.37100
C316        C  0.84325865  0.72243073  0.78897606     0.37100
N317        N  0.89152819  0.91760091  0.82745050    -0.37700
N318        N  0.83475211  0.68979972  0.78200971    -0.37700
N319        N  0.97526101  0.83367164  0.83503081    -0.37100
N320        N  0.75145812  0.77260408  0.78089244    -0.37100
C321        C  0.62922346  0.12617068  0.19079689    -0.03800
C322        C  0.63718100  0.15823509  0.21798803    -0.00900
C323        C  0.60608847  0.17630797  0.24027047     0.04100
C324        C  0.56695766  0.16273511  0.23499117    -0.03800
C325        C  0.55860142  0.13357632  0.20473382    -0.00900
C326        C  0.58956187  0.11496427  0.18309356     0.04100
C327        C  0.67732561  0.17270708  0.22300248     0.38700
C328        C  0.51790611  0.12263198  0.19586107     0.38700
C329        C  0.58040947  0.08243675  0.15511469     0.37100
C330        C  0.61456341  0.20749333  0.27002372     0.37100
N331        N  0.57302434  0.05642473  0.13295224    -0.37700
N332        N  0.62125991  0.23241174  0.29375397    -0.37700
N333        N  0.48550714  0.11411079  0.18845856    -0.37100
N334        N  0.70931884  0.18441808  0.22677823    -0.37100
C335        C  0.39438703  0.10294007  0.25781545    -0.03800
C336        C  0.39176095  0.06483169  0.27713604    -0.00900
C337        C  0.37386426  0.03288421  0.25595214     0.04100
C338        C  0.35877852  0.03838860  0.21513159    -0.03800
C339        C  0.35960953  0.07654393  0.19649418    -0.00900
C340        C  0.37705129  0.10875411  0.21772363     0.04100
C341        C  0.40975023  0.05727249  0.31768687     0.38700
C342        C  0.34243844  0.08264983  0.15527276     0.38700
C343        C  0.37709892  0.14770818  0.19775682     0.37100
C344        C  0.37366955  0.99354786  0.27514362     0.37100
N345        N  0.37705493  0.17860959  0.18148512    -0.37700
N346        N  0.37368957  0.96221674  0.29044414    -0.37700
N347        N  0.32871826  0.08748798  0.12243538    -0.37100
N348        N  0.42415657  0.05106105  0.34994256    -0.37100
C349        C  0.19898981  0.52205672  0.24578210    -0.03800
C350        C  0.17709902  0.51643511  0.20868575    -0.00900
C351        C  0.16079647  0.54940598  0.18749756     0.04100
C352        C  0.16593438  0.58812791  0.20369509    -0.03800
C353        C  0.18975861  0.59372925  0.23958926    -0.00900
C354        C  0.20666127  0.56080425  0.26014294     0.04100
C355        C  0.16865943  0.47653928  0.19405061     0.38700
C356        C  0.19635023  0.63320442  0.25622641     0.38700
C357        C  0.23197399  0.56677002  0.29626354     0.37100
C358        C  0.13614188  0.54281795  0.15100245     0.37100
N359        N  0.25231270  0.57150689  0.32491804    -0.37700
N360        N  0.11642888  0.53737774  0.12200020    -0.37700
N361        N  0.20137097  0.66448231  0.27007426    -0.37100
N362        N  0.16179912  0.44473774  0.18252195    -0.37100
C363        C  0.11417268  0.35795904  0.28000779    -0.03800
C364        C  0.08158783  0.38158863  0.26796390    -0.00900
C365        C  0.04893891  0.36412524  0.24783784     0.04100
C366        C  0.04938232  0.32335089  0.23748467    -0.03800
C367        C  0.08093130  0.29929067  0.25146442    -0.00900
C368        C  0.11311808  0.31655050  0.27285559     0.04100
C369        C  0.08266589  0.42439095  0.27332131     0.38700
C370        C  0.08123165  0.25712494  0.24246736     0.38700
C371        C  0.14521185  0.29156231  0.28744804     0.37100
C372        C  0.01447911  0.38819917  0.23839517     0.37100
N373        N  0.17068013  0.27153916  0.29917568    -0.37700
N374        N  0.98688535  0.40726799  0.23129370    -0.37700
N375        N  0.08154985  0.22343563  0.23542456    -0.37100
N376        N  0.08356748  0.45858032  0.27707932    -0.37100
C377        C  0.38661034  0.29214797  0.30367032    -0.03800
C378        C  0.34879647  0.28154968  0.28881906    -0.00900
C379        C  0.31821347  0.30955783  0.28845773     0.04100
C380        C  0.32440042  0.34769604  0.30539810    -0.03800
C381        C  0.36292566  0.35925843  0.31769776    -0.00900
C382        C  0.39415534  0.33152648  0.31632071     0.04100
C383        C  0.34097956  0.24144059  0.27448949     0.38700
C384        C  0.37022007  0.39883771  0.33361342     0.38700
C385        C  0.43337789  0.34276351  0.33027820     0.37100
C386        C  0.28054314  0.29929291  0.26958600     0.37100
N387        N  0.46471124  0.35168102  0.34134731    -0.37700
N388        N  0.25073114  0.29123053  0.25405230    -0.37700
N389        N  0.37628681  0.43040084  0.34626809    -0.37100
N390        N  0.33440750  0.20940409  0.26354943    -0.37100
C391        C  0.15952495  0.36475638  0.79302698    -0.03800
C392        C  0.14233179  0.40292536  0.79352055    -0.00900
C393        C  0.16063477  0.43489742  0.77220986     0.04100
C394        C  0.19686965  0.42927778  0.75096934    -0.03800
C395        C  0.21651859  0.39242603  0.75505128    -0.00900
C396        C  0.19774705  0.36012438  0.77576712     0.04100
C397        C  0.10569384  0.40943230  0.81607510     0.38700
C398        C  0.25485700  0.38674411  0.73575353     0.38700
C399        C  0.21676449  0.32155479  0.77672028     0.37100
C400        C  0.14178630  0.47362078  0.77187543     0.37100
N401        N  0.23189121  0.29077065  0.77750316    -0.37700
N402        N  0.12671649  0.50443805  0.77138591    -0.37700
N403        N  0.28551253  0.38196281  0.72058191    -0.37100
N404        N  0.07660802  0.41475851  0.83421024    -0.37100
C405        C  0.08945468  0.65191139  0.75313233    -0.03800
C406        C  0.11983904  0.63617038  0.77862628    -0.00900
C407        C  0.15274441  0.61759757  0.76039967     0.04100
C408        C  0.15522870  0.61393391  0.71630104    -0.03800
C409        C  0.12733151  0.63414934  0.69087052    -0.00900
C410        C  0.09458953  0.65319874  0.70925445     0.04100
C411        C  0.11685337  0.63829231  0.82397290     0.38700
C412        C  0.13209153  0.63529472  0.64569907     0.38700
C413        C  0.06524858  0.67209156  0.68273902     0.37100
C414        C  0.18275413  0.60067257  0.78761722     0.37100
N415        N  0.04199926  0.68720383  0.66140387    -0.37700
N416        N  0.20665423  0.58746933  0.80953918    -0.37700
N417        N  0.13592472  0.63628810  0.60968007    -0.37100
N418        N  0.11427454  0.63984945  0.86006728    -0.37100
C419        C  0.22765634  0.47864107  0.53912135    -0.03800
C420        C  0.26300833  0.46950816  0.51761605    -0.00900
C421        C  0.26160371  0.45533367  0.47628478     0.04100
C422        C  0.22501963  0.45150013  0.45550598    -0.03800
C423        C  0.18970479  0.46106963  0.47665401    -0.00900
C424        C  0.19093737  0.47394407  0.51852102     0.04100
C425        C  0.30113558  0.47606421  0.53721830     0.38700
C426        C  0.15214846  0.45940632  0.45476658     0.38700
C427        C  0.15419952  0.48135536  0.54052586     0.37100
C428        C  0.29789426  0.44376189  0.45551520     0.37100
N429        N  0.12480557  0.48703628  0.55797022    -0.37700
N430        N  0.32681299  0.43431032  0.43910034    -0.37700
N431        N  0.12230613  0.45833347  0.43713131    -0.37100
N432        N  0.33161519  0.48133033  0.55264777    -0.37100
C433        C  0.39599712  0.86069620  0.68974594    -0.03800
C434        C  0.41193800  0.89905618  0.68242099    -0.00900
C435        C  0.39537703  0.93220238  0.70224374     0.04100
C436        C  0.36175899  0.92762435  0.72814210    -0.03800
C437        C  0.34351163  0.88994751  0.73222687    -0.00900
C438        C  0.36088194  0.85643366  0.71344780     0.04100
C439        C  0.44683187  0.90445896  0.65643981     0.38700
C440        C  0.30829511  0.88514056  0.75772108     0.38700
C441        C  0.34269032  0.81754856  0.71864088     0.37100
C442        C  0.41378167  0.97101402  0.69679301     0.37100
N443        N  0.32819851  0.78652108  0.72274206    -0.37700
N444        N  0.42880693  0.00178353  0.69276279    -0.37700
N445        N  0.28017636  0.88115695  0.77800848    -0.37100
N446        N  0.47452196  0.90888877  0.63559285    -0.37100
C447        C  0.57494818  0.79232050  0.72807572    -0.03800
C448        C  0.57043884  0.80944233  0.76800574    -0.00900
C449        C  0.60290821  0.82799455  0.78771746     0.04100
C450        C  0.64029158  0.82955183  0.76763025    -0.03800
C451        C  0.64536463  0.80935632  0.72927996    -0.00900
C452        C  0.61289664  0.79074207  0.70976870     0.04100
C453        C  0.53182081  0.81037165  0.78777899     0.38700
C454        C  0.68392382  0.80773737  0.70945997     0.38700
C455        C  0.61864065  0.76955672  0.67084512     0.37100
C456        C  0.59674991  0.84783897  0.82733403     0.37100
N457        N  0.62318147  0.75249498  0.63992723    -0.37700
N458        N  0.59170102  0.86370097  0.85887689    -0.37700
N459        N  0.71454061  0.80644504  0.69337376    -0.37100
N460        N  0.50107032  0.81115817  0.80362017    -0.37100
C461        C  0.40331021  0.65106219  0.66067056    -0.03800
C462        C  0.38921638  0.63464774  0.62292697    -0.00900
C463        C  0.36053521  0.60427309  0.62391420     0.04100
C464        C  0.34494277  0.59078296  0.66260144    -0.03800
C465        C  0.36108064  0.60514099  0.70041569    -0.00900
C466        C  0.39065800  0.63482638  0.69943226     0.04100
C467        C  0.40337038  0.64974178  0.58282835     0.38700
C468        C  0.34474596  0.59227140  0.74037249     0.38700
C469        C  0.40556984  0.65079701  0.73843681     0.37100
C470        C  0.34650494  0.58758339  0.58486240     0.37100
N471        N  0.41740801  0.66346038  0.76959694    -0.37700
N472        N  0.33551222  0.57459478  0.55351514    -0.37700
N473        N  0.33145900  0.58229166  0.77220954    -0.37100
N474        N  0.41424768  0.66199313  0.55082352    -0.37100
C475        C  0.92500868  0.61867579  0.25975629    -0.03800
C476        C  0.95909197  0.62888683  0.28332178    -0.00900
C477        C  0.99183845  0.64744409  0.26361495     0.04100
C478        C  0.99072202  0.65644078  0.22037864    -0.03800
C479        C  0.95590454  0.64892607  0.19749055    -0.00900
C480        C  0.92349474  0.62963292  0.21670795     0.04100
C481        C  0.96109454  0.61986179  0.32780796     0.38700
C482        C  0.95360228  0.66079014  0.15366604     0.38700
C483        C  0.88990623  0.61887667  0.19086085     0.37100
C484        C  0.02755712  0.65502443  0.28742683     0.37100
N485        N  0.86345741  0.61013644  0.16987063    -0.37700
N486        N  0.05602678  0.66090837  0.30647900    -0.37700
N487        N  0.95193101  0.67036262  0.11879542    -0.37100
N488        N  0.96288095  0.61254697  0.36325498    -0.37100
C489        C  0.85137826  0.44846096  0.22369234    -0.03800
C490        C  0.88264604  0.45328103  0.19475131    -0.00900
C491        C  0.89808685  0.42006510  0.17405302     0.04100
C492        C  0.88190119  0.38186764  0.18190281    -0.03800
C493        C  0.84733560  0.37804472  0.20651569    -0.00900
C494        C  0.83227426  0.41123977  0.22776100     0.04100
C495        C  0.89984321  0.49235482  0.18723501     0.38700
C496        C  0.82765589  0.33978305  0.21052161     0.38700
C497        C  0.79913983  0.40627548  0.25621924     0.37100
C498        C  0.93264765  0.42510510  0.14751969     0.37100
N499        N  0.77279165  0.40229875  0.27902680    -0.37700
N500        N  0.96033109  0.42933121  0.12661372    -0.37700
N501        N  0.81184490  0.30930613  0.21348562    -0.37100
N502        N  0.91362825  0.52343749  0.18123790    -0.37100
C503        C  0.64903578  0.87460879  0.26126629    -0.03800
C504        C  0.63413145  0.88541621  0.22139209    -0.00900
C505        C  0.64933163  0.91881087  0.19997736     0.04100
C506        C  0.67952999  0.94215984  0.21821524    -0.03800
C507        C  0.69402336  0.93177033  0.25843084    -0.00900
C508        C  0.67881641  0.89805797  0.27987204     0.04100
C509        C  0.60177264  0.86318839  0.20274460     0.38700
C510        C  0.72316549  0.95673491  0.27876568     0.38700
C511        C  0.69419642  0.88730036  0.32081766     0.37100
C512        C  0.63359378  0.92879082  0.15887941     0.37100
N513        N  0.70642956  0.87875452  0.35350949    -0.37700
N514        N  0.62064330  0.93672331  0.12633367    -0.37700
N515        N  0.74622110  0.97672218  0.29520603    -0.37100
N516        N  0.57600276  0.84560919  0.18780729    -0.37100
C517        C  0.49001944  0.82336203  0.24577621    -0.03800
C518        C  0.46315521  0.80254502  0.22007500    -0.00900
C519        C  0.43502578  0.82362596  0.19601637     0.04100
C520        C  0.43264527  0.86541338  0.19885997    -0.03800
C521        C  0.46048242  0.88632504  0.22307914    -0.00900
C522        C  0.48934880  0.86551283  0.24599336     0.04100
C523        C  0.46316343  0.75945060  0.21974244     0.38700
C524        C  0.46027741  0.92952823  0.22325967     0.38700
C525        C  0.51930047  0.88785715  0.26846656     0.37100
C526        C  0.40804657  0.80221762  0.16902864     0.37100
N527        N  0.54328699  0.90566708  0.28614619    -0.37700
N528        N  0.38686628  0.78513838  0.14710210    -0.37700
N529        N  0.46024038  0.96393499  0.22320320    -0.37100
N530        N  0.46297695  0.72505084  0.21961067    -0.37100
C531        C  0.54764007  0.76485543  0.44585367    -0.03800
C532        C  0.53991974  0.80015524  0.46805537    -0.00900
C533        C  0.52395604  0.79821826  0.50876768     0.04100
C534        C  0.51560968  0.76096236  0.52782983    -0.03800
C535        C  0.52350157  0.72565425  0.50574583    -0.00900
C536        C  0.53938891  0.72760739  0.46492121     0.04100
C537        C  0.54702427  0.83877159  0.44866992     0.38700
C538        C  0.51429279  0.68717442  0.52434840     0.38700
C539        C  0.54796189  0.69108297  0.44292884     0.37100
C540        C  0.51694005  0.83484595  0.53128309     0.37100
N541        N  0.55475540  0.66196183  0.42538291    -0.37700
N542        N  0.51121178  0.86398963  0.54921952    -0.37700
N543        N  0.50710431  0.65634928  0.53893780    -0.37100
N544        N  0.55258580  0.86967419  0.43347442    -0.37100
C545        C  0.66575687  0.67551508  0.29574223    -0.03800
C546        C  0.70306780  0.68513518  0.27838155    -0.00900
C547        C  0.73356486  0.65690417  0.27877748     0.04100
C548        C  0.72700589  0.61889733  0.29657559    -0.03800
C549        C  0.68869246  0.60789731  0.31002265    -0.00900
C550        C  0.65795053  0.63617194  0.30937370     0.04100
C551        C  0.71011418  0.72418834  0.25995958     0.38700
C552        C  0.68151248  0.56836064  0.32696091     0.38700
C553        C  0.61905664  0.62530886  0.32485488     0.37100
C554        C  0.77174325  0.66692174  0.26062432     0.37100
N555        N  0.58799219  0.61648144  0.33703999    -0.37700
N556        N  0.80210570  0.67483986  0.24599080    -0.37700
N557        N  0.67583485  0.53683650  0.34057384    -0.37100
N558        N  0.71569868  0.75527959  0.24521256    -0.37100
C559        C  0.48078976  0.15272903  0.70774862    -0.03800
C560        C  0.45095076  0.13628216  0.68224123    -0.00900
C561        C  0.41926475  0.11492673  0.70041611     0.04100
C562        C  0.41543009  0.11243415  0.74459293    -0.03800
C563        C  0.44304443  0.13298362  0.76995447    -0.00900
C564        C  0.47591041  0.15246661  0.75162344     0.04100
C565        C  0.45291186  0.14135126  0.63703094     0.38700
C566        C  0.43832344  0.13359520  0.81511603     0.38700
C567        C  0.50583012  0.17015709  0.77819397     0.37100
C568        C  0.39292329  0.09279303  0.67329041     0.37100
N569        N  0.52971053  0.18421148  0.79940443    -0.37700
N570        N  0.37247063  0.07470977  0.65147466    -0.37700
N571        N  0.43471645  0.13408792  0.85115315    -0.37100
N572        N  0.45429446  0.14583210  0.60106748    -0.37100
C573        C  0.66155401  0.08557496  0.71186804    -0.03800
C574        C  0.65314577  0.07679933  0.75443824    -0.00900
C575        C  0.67099117  0.04403895  0.77451198     0.04100
C576        C  0.69655222  0.01875374  0.75210090    -0.03800
C577        C  0.70654329  0.02849748  0.71024909    -0.00900
C578        C  0.68922647  0.06182816  0.69026329     0.04100
C579        C  0.62442466  0.09997660  0.77744653     0.38700
C580        C  0.73340343  0.00346197  0.68702971     0.38700
C581        C  0.70020133  0.07169386  0.64745561     0.37100
C582        C  0.66304318  0.03661444  0.81865488     0.37100
N583        N  0.70893399  0.07958952  0.61330970    -0.37700
N584        N  0.65662916  0.03078803  0.85379982    -0.37700
N585        N  0.75485203  0.98360792  0.66838297    -0.37100
N586        N  0.60147834  0.11819468  0.79596299    -0.37100
C587        C  0.51612193  0.18910671  0.44180189    -0.03800
C588        C  0.52505339  0.15199600  0.46074761    -0.00900
C589        C  0.54318711  0.15037892  0.50051859     0.04100
C590        C  0.55194834  0.18583241  0.52218483    -0.03800
C591        C  0.54290139  0.22290931  0.50329383    -0.00900
C592        C  0.52477146  0.22452708  0.46358138     0.04100
C593        C  0.51610168  0.11520251  0.43926839     0.38700
C594        C  0.55318427  0.25972415  0.52412312     0.38700
C595        C  0.51358884  0.26285675  0.44607773     0.37100
C596        C  0.55198595  0.11195733  0.51932323     0.37100
N597        N  0.50456857  0.29348445  0.43240506    -0.37700
N598        N  0.55915159  0.08127397  0.53409804    -0.37700
N599        N  0.56141559  0.28906095  0.54069246    -0.37100
N600        N  0.50875645  0.08582485  0.42233053    -0.37100
C601        C  0.98877301  0.28112558  0.73831451    -0.03800
C602        C  0.94901963  0.27753073  0.75137334    -0.00900
C603        C  0.91876631  0.29577695  0.72791133     0.04100
C604        C  0.92820162  0.31911135  0.69215992    -0.03800
C605        C  0.96750253  0.31966801  0.67701488    -0.00900
C606        C  0.99767979  0.30068366  0.70001334     0.04100
C607        C  0.93927541  0.25632975  0.78985874     0.38700
C608        C  0.97779209  0.34250755  0.63972473     0.38700
C609        C  0.03841378  0.30504677  0.68632963     0.37100
C610        C  0.87789376  0.29086791  0.74091930     0.37100
N611        N  0.07086995  0.30886040  0.67552458    -0.37700
N612        N  0.84528654  0.28688396  0.75114337    -0.37700
N613        N  0.98610510  0.36077389  0.61007190    -0.37100
N614        N  0.93145885  0.23979292  0.82074733    -0.37100
C615        C  0.88769498  0.50952692  0.71283340    -0.03800
C616        C  0.92068947  0.53056778  0.69636093    -0.00900
C617        C  0.93646144  0.56336988  0.71780013     0.04100
C618        C  0.91878060  0.57658096  0.75524344    -0.03800
C619        C  0.88583473  0.55581218  0.77179714    -0.00900
C620        C  0.87055052  0.52222330  0.75090294     0.04100
C621        C  0.93843677  0.51913865  0.65684739     0.38700
C622        C  0.86717502  0.56930016  0.80999390     0.38700
C623        C  0.83819055  0.49990323  0.76967466     0.37100
C624        C  0.97228247  0.58232837  0.70214609     0.37100
N625        N  0.81251722  0.48197576  0.78476208    -0.37700
N626        N  0.00097626  0.59720634  0.68984584    -0.37700
N627        N  0.85219104  0.58000680  0.84043295    -0.37100
N628        N  0.95277909  0.51014496  0.62543687    -0.37100
C629        C  0.84264480  0.45751254  0.51889413    -0.03800
C630        C  0.84283878  0.49926077  0.51388653    -0.00900
C631        C  0.83955900  0.51659477  0.47363780     0.04100
C632        C  0.83630685  0.49229675  0.43782449    -0.03800
C633        C  0.83649241  0.45035981  0.44297847    -0.00900
C634        C  0.83981206  0.43312218  0.48331203     0.04100
C635        C  0.84749328  0.52449858  0.55021216     0.41900
C636        C  0.83398080  0.42460702  0.40685568     0.38700
C637        C  0.83918289  0.39016719  0.48824851     0.37100
C638        C  0.83812142  0.55955832  0.46952012     0.37100
N639        N  0.83871895  0.35593444  0.49224194    -0.37700
N640        N  0.83689569  0.59382926  0.46633494    -0.37700
N641        N  0.83185324  0.40393781  0.37817345    -0.37100
N642        N  0.85133779  0.54442892  0.57927788    -0.37100
C643        C  0.73493893  0.33922903  0.65222299    -0.03800
C644        C  0.71836083  0.32641307  0.69078463    -0.00900
C645        C  0.68687259  0.29866484  0.69126491     0.04100
C646        C  0.67230748  0.28314778  0.65327423    -0.03800
C647        C  0.68711328  0.29801777  0.61479635    -0.00900
C648        C  0.71798033  0.32615183  0.61425616     0.04100
C649        C  0.73534984  0.33943247  0.73006529     0.38700
C650        C  0.67080877  0.28413296  0.57546703     0.38700
C651        C  0.73235328  0.34149385  0.57432574     0.37100
C652        C  0.67137639  0.28414115  0.73096606     0.37100
N653        N  0.74390138  0.35367913  0.54255158    -0.37700
N654        N  0.65902283  0.27257224  0.76264559    -0.37700
N655        N  0.65803585  0.27297905  0.54407197    -0.37100
N656        N  0.74892601  0.34964778  0.76144987    -0.37100
loop_ 
_geom_bond_atom_site_label_1 
_geom_bond_atom_site_label_2 
_geom_bond_distance 
_geom_bond_site_symmetry_2 
_ccdc_geom_bond_type 
O1            C4   1.267       .  A
O1           Cd6   2.470       .  S
C2           O11   1.266       .  A
C2            O7   1.268       .  A
C2          C604   1.486       .  S
O3            C9   1.269       .  A
O3           Cd6   2.482       .  S
C4           O12   1.264       .  A
C4          C629   1.483       .  S
C5           O10   1.268       .  A
C5            O8   1.263       .  A
C5          C643   1.486       .  S
Cd6          O13   2.425       .  S
Cd6          O12   2.440       .  S
Cd6          O11   2.423       .  S
Cd6           O7   2.460       .  S
Cd6          O10   2.489       .  S
Cd6           O8   2.406       .  S
C9           O13   1.264       .  A
C9          C615   1.492       .  S
O14          C17   1.269       .  A
O14         Cd19   2.464       .  S
C15          O24   1.265       .  A
C15          O20   1.267       .  A
C15         C573   1.493       .  S
O16          C22   1.269       .  A
O16         Cd19   2.485       .  S
C17          O25   1.265       .  A
C17         C590   1.488       .  S
C18          O23   1.270       .  A
C18          O21   1.263       .  A
C18         C559   1.484       .  S
Cd19         O26   2.415       .  S
Cd19         O25   2.425       .  S
Cd19         O24   2.444       .  S
Cd19         O20   2.471       .  S
Cd19         O23   2.494       .  S
Cd19         O21   2.407       .  S
C22          O26   1.264       .  A
C22         C646   1.483       .  S
O27          C30   1.268       .  A
O27         Cd32   2.478       .  S
C28          O37   1.267       .  A
C28          O33   1.268       .  A
C28         C531   1.484       .  S
O29          C35   1.269       .  A
O29         Cd32   2.488       .  S
C30          O38   1.263       .  A
C30         C503   1.482       .  S
C31          O36   1.270       .  A
C31          O34   1.265       .  A
C31         C545   1.481       .  S
Cd32         O39   2.412       .  S
Cd32         O38   2.399       .  S
Cd32         O37   2.438       .  S
Cd32         O33   2.444       .  S
Cd32         O36   2.490       .  S
Cd32         O34   2.402       .  S
C35          O39   1.262       .  A
C35         C517   1.486       .  S
O40          C43   1.267       .  A
O40         Cd45   2.468       .  S
C41          O50   1.263       .  A
C41          O46   1.265       .  A
C41         C632   1.493       .  S
O42          C48   1.265       .  A
O42         Cd45   2.473       .  S
C43          O51   1.265       .  A
C43         C475   1.498       .  S
C44          O49   1.265       .  A
C44          O47   1.262       .  A
C44         C489   1.477       .  S
Cd45         O52   2.435       .  S
Cd45         O51   2.452       .  S
Cd45         O50   2.469       .  S
Cd45         O46   2.476       .  S
Cd45         O49   2.481       .  S
Cd45         O47   2.411       .  S
C48          O52   1.265       .  A
C48         C548   1.478       .  S
O53          C56   1.263       .  A
O53         Cd58   2.453       .  S
C54          O63   1.268       .  A
C54          O59   1.266       .  A
C54         C534   1.484       .  S
O55          C61   1.266       .  A
O55         Cd58   2.489       .  S
C56          O64   1.264       .  A
C56         C433   1.483       .  S
C57          O62   1.266       .  A
C57          O60   1.262       .  A
C57         C461   1.480       .  S
Cd58         O65   2.447       .  S
Cd58         O64   2.462       .  S
Cd58         O63   2.456       .  S
Cd58         O59   2.422       .  S
Cd58         O62   2.477       .  S
Cd58         O60   2.415       .  S
C61          O65   1.263       .  A
C61         C447   1.487       .  S
O66          C69   1.265       .  A
O66         Cd71   2.456       .  S
C67          O76   1.265       .  A
C67          O72   1.266       .  A
C67         C408   1.493       .  S
O68          C74   1.268       .  A
O68         Cd71   2.508       .  S
C69          O77   1.265       .  A
C69         C419   1.486       .  S
C70          O75   1.268       .  A
C70          O73   1.264       .  A
C70         C464   1.481       .  S
Cd71         O78   2.419       .  S
Cd71         O77   2.450       .  S
Cd71         O76   2.449       .  S
Cd71         O72   2.455       .  S
Cd71         O75   2.472       .  S
Cd71         O73   2.417       .  S
C74          O78   1.263       .  A
C74         C394   1.489       .  S
O79          C82   1.265       .  A
O79         Cd84   2.465       .  S
C80          O89   1.264       .  A
C80          O85   1.266       .  A
C80         C422   1.480       .  S
O81          C87   1.266       .  A
O81         Cd84   2.480       .  S
C82          O90   1.264       .  A
C82         C363   1.485       .  S
C83          O88   1.264       .  A
C83          O86   1.262       .  A
C83         C349   1.474       .  S
Cd84         O91   2.411       .  S
Cd84         O90   2.457       .  S
Cd84         O89   2.439       .  S
Cd84         O85   2.457       .  S
Cd84         O88   2.459       .  S
Cd84         O86   2.420       .  S
C87          O91   1.266       .  A
C87         C380   1.483       .  S
O92          C95   1.269       .  A
O92         Cd97   2.456       .  S
C93         O102   1.265       .  A
C93          O98   1.266       .  A
C93         C587   1.490       .  S
O94         C100   1.269       .  A
O94         Cd97   2.492       .  S
C95         O103   1.265       .  A
C95         C335   1.496       .  S
C96         O101   1.267       .  A
C96          O99   1.262       .  A
C96         C377   1.476       .  S
Cd97        O104   2.411       .  S
Cd97        O103   2.441       .  S
Cd97        O102   2.453       .  S
Cd97         O98   2.467       .  S
Cd97        O101   2.490       .  S
Cd97         O99   2.406       .  S
C100        O104   1.264       .  A
C100        C324   1.480       .  S
O105        C108   1.267       .  A
O105       Cd110   2.471       .  S
C106        O115   1.266       .  A
C106        O111   1.266       .  A
C106        C296   1.488       .  S
O107        C113   1.268       .  A
O107       Cd110   2.502       .  S
C108        O116   1.266       .  A
C108        C450   1.494       .  S
C109        O114   1.270       .  A
C109        O112   1.263       .  A
C109        C576   1.489   1_565  S
Cd110       O117   2.422       .  S
Cd110       O116   2.455       .  S
Cd110       O115   2.460       .  S
Cd110       O111   2.457       .  S
Cd110       O114   2.501       .  S
Cd110       O112   2.408       .  S
C113        O117   1.263       .  A
C113        C307   1.481       .  S
O118        C121   1.268       .  A
O118       Cd123   2.477       .  S
C119        O128   1.265       .  A
C119        O124   1.268   1_455  A
C119        C282   1.483       .  S
O120        C126   1.270       .  A
O120       Cd123   2.501   1_455  S
C121        O129   1.266       .  A
C121        C618   1.486       .  S
C122        O127   1.268       .  A
C122        O125   1.265       .  A
C122        C310   1.487       .  S
Cd123       O130   2.394   1_655  S
Cd123       O129   2.428       .  S
Cd123       O128   2.434   1_655  S
Cd123       O124   2.453       .  S
Cd123       O127   2.491       .  S
Cd123       O125   2.421       .  S
C126        O130   1.263       .  A
C126        C405   1.485       .  S
O131        C134   1.267       .  A
O131       Cd136   2.468       .  S
C132        O141   1.265       .  A
C132        O137   1.267       .  A
C132        C321   1.487       .  S
O133        C139   1.268       .  A
O133       Cd136   2.486   1_565  S
C134        O142   1.265   1_545  A
C134        C293   1.487   1_545  S
C135        O140   1.267       .  A
C135        O138   1.263       .  A
C135        C265   1.479       .  S
Cd136       O143   2.409   1_545  S
Cd136       O142   2.454   1_545  S
Cd136       O141   2.451       .  S
Cd136       O137   2.461       .  S
Cd136       O140   2.471       .  S
Cd136       O138   2.415       .  S
C139        O143   1.263       .  A
C139        C506   1.487       .  S
O144        C147   1.265       .  A
O144       Cd149   2.453       .  S
C145        O154   1.266   1_655  A
C145        O150   1.264       .  A
C145        C254   1.484   1_655  S
O146        C152   1.268       .  A
O146       Cd149   2.489   1_455  S
C147        O155   1.265       .  A
C147        C492   1.481       .  S
C148        O153   1.266       .  A
C148        O151   1.263       .  A
C148        C268   1.475       .  S
Cd149       O156   2.415   1_655  S
Cd149       O155   2.438       .  S
Cd149       O154   2.472   1_655  S
Cd149       O150   2.433       .  S
Cd149       O153   2.473       .  S
Cd149       O151   2.414       .  S
C152        O156   1.263       .  A
C152        C366   1.485       .  S
O157        C160   1.265       .  A
O157       Cd162   2.448       .  S
C158        O167   1.266       .  A
C158        O163   1.265       .  A
C158        C562   1.494       .  S
O159        C165   1.268       .  A
O159       Cd162   2.492   1_565  S
C160        O168   1.265   1_545  A
C160        C226   1.488   1_545  S
C161        O166   1.268       .  A
C161        O164   1.263       .  A
C161        C240   1.484       .  S
Cd162       O169   2.411   1_545  S
Cd162       O168   2.445   1_545  S
Cd162       O167   2.471       .  S
Cd162       O163   2.453       .  S
Cd162       O166   2.488       .  S
Cd162       O164   2.410       .  S
C165        O169   1.263       .  A
C165        C436   1.481       .  S
O170        C173   1.266       .  A
O170       Cd175   2.486       .  S
C171        O180   1.265       .  A
C171        O176   1.266       .  A
C171        C251   1.483       .  S
O172        C178   1.265       .  A
O172       Cd175   2.472       .  S
C173        O181   1.264       .  A
C173        C391   1.488       .  S
C174        O179   1.264       .  A
C174        O177   1.264       .  A
C174        C237   1.483       .  S
Cd175       O182   2.438       .  S
Cd175       O181   2.435       .  S
Cd175       O180   2.451       .  S
Cd175       O176   2.455       .  S
Cd175       O179   2.454       .  S
Cd175       O177   2.462       .  S
C178        O182   1.263       .  A
C178        C601   1.482   1_455  S
O183        C186   1.266       .  A
O183       Cd188   2.448       .  S
C184        O193   1.267       .  A
C184        O189   1.266       .  A
C184        C279   1.490       .  S
O185        C191   1.269       .  A
O185       Cd188   2.496       .  S
C186        O194   1.264       .  A
C186        C352   1.482       .  S
C187        O192   1.268       .  A
C187        O190   1.262       .  A
C187        C209   1.484       .  S
Cd188       O195   2.410       .  S
Cd188       O194   2.425       .  S
Cd188       O193   2.442       .  S
Cd188       O189   2.444       .  S
Cd188       O192   2.490       .  S
Cd188       O190   2.421       .  S
C191        O195   1.263       .  A
C191        C478   1.484   1_455  S
O196        C199   1.266       .  A
O196       Cd201   2.441       .  S
C197        O206   1.263       .  A
C197        O202   1.266       .  A
C197        C520   1.478       .  S
O198        C204   1.268   1_565  A
O198       Cd201   2.465       .  S
C199        O207   1.266       .  A
C199        C223   1.483       .  S
C200        O205   1.267       .  A
C200        O203   1.263       .  A
C200        C212   1.485       .  S
Cd201       O208   2.436       .  S
Cd201       O207   2.454       .  S
Cd201       O206   2.423       .  S
Cd201       O202   2.483       .  S
Cd201       O205   2.490       .  S
Cd201       O203   2.414       .  S
C204        O208   1.264   1_545  A
C204        C338   1.481       .  S
C209        C210   1.414       .  A
C209        C214   1.414       .  A
C210        C211   1.413       .  A
C210        C215   1.450       .  S
C211        C212   1.414       .  A
C211        C218   1.451       .  S
C212        C213   1.413       .  A
C213        C214   1.406       .  A
C213        C216   1.453       .  S
C214        C217   1.452       .  S
C215        N222   1.157       .  T
C216        N221   1.157       .  T
C217        N219   1.157       .  T
C218        N220   1.157       .  T
C223        C224   1.413   1_554  A
C223        C228   1.413   1_554  A
C224        C225   1.410       .  A
C224        C229   1.452   1_556  S
C225        C226   1.417       .  A
C225        C232   1.452       .  S
C226        C227   1.416   1_565  A
C227        C228   1.409   1_545  A
C227        C230   1.452       .  S
C228        C231   1.452   1_556  S
C229        N236   1.157       .  T
C230        N235   1.157       .  T
C231        N233   1.157   1_565  T
C232        N234   1.158       .  T
C237        C238   1.414       .  A
C237        C242   1.414       .  A
C238        C239   1.412       .  A
C238        C243   1.451       .  S
C239        C240   1.413       .  A
C239        C246   1.451       .  S
C240        C241   1.414       .  A
C241        C242   1.407       .  A
C241        C244   1.453       .  S
C242        C245   1.453       .  S
C243        N250   1.157       .  T
C244        N249   1.158       .  T
C245        N247   1.157       .  T
C246        N248   1.157       .  T
C251        C252   1.414       .  A
C251        C256   1.413       .  A
C252        C253   1.411   1_556  A
C252        C257   1.452       .  S
C253        C254   1.414       .  A
C253        C260   1.451       .  S
C254        C255   1.414       .  A
C255        C256   1.408   1_554  A
C255        C258   1.453       .  S
C256        C259   1.452       .  S
C257        N264   1.157       .  T
C258        N263   1.157       .  T
C259        N261   1.157       .  T
C260        N262   1.157       .  T
C265        C266   1.415       .  A
C265        C270   1.413       .  A
C266        C267   1.411       .  A
C266        C271   1.452       .  S
C267        C268   1.411       .  A
C267        C274   1.451       .  S
C268        C269   1.411       .  A
C269        C270   1.406       .  A
C269        C272   1.452       .  S
C270        C273   1.452       .  S
C271        N278   1.157       .  T
C272        N277   1.157       .  T
C273        N275   1.157       .  T
C274        N276   1.157       .  T
C279        C280   1.417       .  A
C279        C284   1.418       .  A
C280        C281   1.409   1_554  A
C280        C285   1.452       .  S
C281        C282   1.413       .  A
C281        C288   1.452       .  S
C282        C283   1.413       .  A
C283        C284   1.410   1_556  A
C283        C286   1.453       .  S
C284        C287   1.452       .  S
C285        N292   1.157       .  T
C286        N291   1.157       .  T
C287        N289   1.158       .  T
C288        N290   1.157       .  T
C293        C294   1.414   1_564  A
C293        C298   1.414       .  A
C294        C295   1.412       .  A
C294        C299   1.452       .  S
C295        C296   1.416   1_545  A
C295        C302   1.452       .  S
C296        C297   1.414       .  A
C297        C298   1.410   1_556  A
C297        C300   1.452       .  S
C298        C301   1.451       .  S
C299        N306   1.157       .  T
C300        N305   1.157       .  T
C301        N303   1.157       .  T
C302        N304   1.158       .  T
C307        C308   1.411       .  A
C307        C312   1.411       .  A
C308        C309   1.406       .  A
C308        C313   1.453       .  S
C309        C310   1.415       .  A
C309        C316   1.453       .  S
C310        C311   1.416       .  A
C311        C312   1.416       .  A
C311        C314   1.450       .  S
C312        C315   1.450       .  S
C313        N320   1.157       .  T
C314        N319   1.158       .  T
C315        N317   1.157       .  T
C316        N318   1.157       .  T
C321        C322   1.416       .  A
C321        C326   1.415       .  A
C322        C323   1.413       .  A
C322        C327   1.451       .  S
C323        C324   1.410       .  A
C323        C330   1.450       .  S
C324        C325   1.412       .  A
C325        C326   1.408       .  A
C325        C328   1.453       .  S
C326        C329   1.452       .  S
C327        N334   1.157       .  T
C328        N333   1.157       .  T
C329        N331   1.157       .  T
C330        N332   1.157       .  T
C335        C336   1.420       .  A
C335        C340   1.421       .  A
C336        C337   1.410       .  A
C336        C341   1.452       .  S
C337        C338   1.411       .  A
C337        C344   1.453   1_545  S
C338        C339   1.410       .  A
C339        C340   1.411       .  A
C339        C342   1.452       .  S
C340        C343   1.452       .  S
C341        N348   1.157       .  T
C342        N347   1.157       .  T
C343        N345   1.158       .  T
C344        N346   1.157       .  T
C349        C350   1.412       .  A
C349        C354   1.409       .  A
C350        C351   1.409       .  A
C350        C355   1.453       .  S
C351        C352   1.416       .  A
C351        C358   1.452       .  S
C352        C353   1.416       .  A
C353        C354   1.406       .  A
C353        C356   1.452       .  S
C354        C357   1.452       .  S
C355        N362   1.157       .  T
C356        N361   1.157       .  T
C357        N359   1.157       .  T
C358        N360   1.157       .  T
C363        C364   1.414       .  A
C363        C368   1.414       .  A
C364        C365   1.408       .  A
C364        C369   1.452       .  S
C365        C366   1.414       .  A
C365        C372   1.453       .  S
C366        C367   1.413       .  A
C367        C368   1.412       .  A
C367        C370   1.450       .  S
C368        C371   1.451       .  S
C369        N376   1.158       .  T
C370        N375   1.158       .  T
C371        N373   1.157       .  T
C372        N374   1.157   1_455  T
C377        C378   1.411       .  A
C377        C382   1.411       .  A
C378        C379   1.403       .  A
C378        C383   1.452       .  S
C379        C380   1.412       .  A
C379        C386   1.452       .  S
C380        C381   1.416       .  A
C381        C382   1.414       .  A
C381        C384   1.450       .  S
C382        C385   1.450       .  S
C383        N390   1.157       .  T
C384        N389   1.157       .  T
C385        N387   1.157       .  T
C386        N388   1.157       .  T
C391        C392   1.413       .  A
C391        C396   1.416       .  A
C392        C393   1.408       .  A
C392        C397   1.452       .  S
C393        C394   1.415       .  A
C393        C400   1.453       .  S
C394        C395   1.415       .  A
C395        C396   1.414       .  A
C395        C398   1.450       .  S
C396        C399   1.451       .  S
C397        N404   1.157       .  T
C398        N403   1.157       .  T
C399        N401   1.157       .  T
C400        N402   1.158       .  T
C405        C406   1.414       .  A
C405        C410   1.412       .  A
C406        C407   1.408       .  A
C406        C411   1.454       .  S
C407        C408   1.417       .  A
C407        C414   1.452       .  S
C408        C409   1.418       .  A
C409        C410   1.413       .  A
C409        C412   1.451       .  S
C410        C413   1.450       .  S
C411        N418   1.158       .  T
C412        N417   1.157       .  T
C413        N415   1.157       .  T
C414        N416   1.158       .  T
C419        C420   1.416       .  A
C419        C424   1.416       .  A
C420        C421   1.409       .  A
C420        C425   1.452       .  S
C421        C422   1.411       .  A
C421        C428   1.452       .  S
C422        C423   1.412       .  A
C423        C424   1.410       .  A
C423        C426   1.452       .  S
C424        C427   1.452       .  S
C425        N432   1.157       .  T
C426        N431   1.157       .  T
C427        N429   1.157       .  T
C428        N430   1.157       .  T
C433        C434   1.414       .  A
C433        C438   1.415       .  A
C434        C435   1.406       .  A
C434        C439   1.452       .  S
C435        C436   1.413       .  A
C435        C442   1.453       .  S
C436        C437   1.412       .  A
C437        C438   1.413       .  A
C437        C440   1.450       .  S
C438        C441   1.451       .  S
C439        N446   1.157       .  T
C440        N445   1.157       .  T
C441        N443   1.157       .  T
C442        N444   1.157   1_565  T
C447        C448   1.413       .  A
C447        C452   1.412       .  A
C448        C449   1.413       .  A
C448        C453   1.452       .  S
C449        C450   1.419       .  A
C449        C456   1.452       .  S
C450        C451   1.417       .  A
C451        C452   1.411       .  A
C451        C454   1.452       .  S
C452        C455   1.452       .  S
C453        N460   1.157       .  T
C454        N459   1.157       .  T
C455        N457   1.157       .  T
C456        N458   1.157       .  T
C461        C462   1.413       .  A
C461        C466   1.413       .  A
C462        C463   1.406       .  A
C462        C467   1.453       .  S
C463        C464   1.413       .  A
C463        C470   1.452       .  S
C464        C465   1.414       .  A
C465        C466   1.411       .  A
C465        C468   1.451       .  S
C466        C469   1.451       .  S
C467        N474   1.157       .  T
C468        N473   1.157       .  T
C469        N471   1.157       .  T
C470        N472   1.157       .  T
C475        C476   1.421       .  A
C475        C480   1.421       .  A
C476        C477   1.414       .  A
C476        C481   1.451       .  S
C477        C478   1.411       .  A
C477        C484   1.452   1_655  S
C478        C479   1.410       .  A
C479        C480   1.409       .  A
C479        C482   1.454       .  S
C480        C483   1.452       .  S
C481        N488   1.158       .  T
C482        N487   1.158       .  T
C483        N485   1.157       .  T
C484        N486   1.157       .  T
C489        C490   1.412       .  A
C489        C494   1.411       .  A
C490        C491   1.407       .  A
C490        C495   1.453       .  S
C491        C492   1.415       .  A
C491        C498   1.452       .  S
C492        C493   1.414       .  A
C493        C494   1.410       .  A
C493        C496   1.451       .  S
C494        C497   1.451       .  S
C495        N502   1.157       .  T
C496        N501   1.157       .  T
C497        N499   1.157       .  T
C498        N500   1.157       .  T
C503        C504   1.415       .  A
C503        C508   1.412       .  A
C504        C505   1.405       .  A
C504        C509   1.455       .  S
C505        C506   1.416       .  A
C505        C512   1.454       .  S
C506        C507   1.416       .  A
C507        C508   1.414       .  A
C507        C510   1.451       .  S
C508        C511   1.451       .  S
C509        N516   1.157       .  T
C510        N515   1.157       .  T
C511        N513   1.157       .  T
C512        N514   1.157       .  T
C517        C518   1.413       .  A
C517        C522   1.418       .  A
C518        C519   1.413       .  A
C518        C523   1.450       .  S
C519        C520   1.412       .  A
C519        C526   1.450       .  S
C520        C521   1.410       .  A
C521        C522   1.406       .  A
C521        C524   1.454       .  S
C522        C525   1.454       .  S
C523        N530   1.157       .  T
C524        N529   1.158       .  T
C525        N527   1.158       .  T
C526        N528   1.157       .  T
C531        C532   1.414       .  A
C531        C536   1.414       .  A
C532        C533   1.408       .  A
C532        C537   1.452       .  S
C533        C534   1.415       .  A
C533        C540   1.453       .  S
C534        C535   1.414       .  A
C535        C536   1.411       .  A
C535        C538   1.451       .  S
C536        C539   1.452       .  S
C537        N544   1.157       .  T
C538        N543   1.157       .  T
C539        N541   1.157       .  T
C540        N542   1.157       .  T
C545        C546   1.414       .  A
C545        C550   1.413       .  A
C546        C547   1.406       .  A
C546        C551   1.453       .  S
C547        C548   1.411       .  A
C547        C554   1.453       .  S
C548        C549   1.412       .  A
C549        C550   1.413       .  A
C549        C552   1.450       .  S
C550        C553   1.450       .  S
C551        N558   1.157       .  T
C552        N557   1.157       .  T
C553        N555   1.157       .  T
C554        N556   1.157       .  T
C559        C560   1.412       .  A
C559        C564   1.410       .  A
C560        C561   1.410       .  A
C560        C565   1.453       .  S
C561        C562   1.418       .  A
C561        C568   1.452       .  S
C562        C563   1.419       .  A
C563        C564   1.412       .  A
C563        C566   1.451       .  S
C564        C567   1.451       .  S
C565        N572   1.158       .  T
C566        N571   1.157       .  T
C567        N569   1.157       .  T
C568        N570   1.158       .  T
C573        C574   1.417       .  A
C573        C578   1.417       .  A
C574        C575   1.408       .  A
C574        C579   1.453       .  S
C575        C576   1.415       .  A
C575        C582   1.454       .  S
C576        C577   1.413       .  A
C577        C578   1.414       .  A
C577        C580   1.451       .  S
C578        C581   1.451       .  S
C579        N586   1.157       .  T
C580        N585   1.157   1_545  T
C581        N583   1.157       .  T
C582        N584   1.157       .  T
C587        C588   1.416       .  A
C587        C592   1.415       .  A
C588        C589   1.412       .  A
C588        C593   1.452       .  S
C589        C590   1.415       .  A
C589        C596   1.452       .  S
C590        C591   1.415       .  A
C591        C592   1.410       .  A
C591        C594   1.453       .  S
C592        C595   1.452       .  S
C593        N600   1.157       .  T
C594        N599   1.157       .  T
C595        N597   1.157       .  T
C596        N598   1.157       .  T
C601        C602   1.413       .  A
C601        C606   1.415       .  A
C602        C603   1.409       .  A
C602        C607   1.452       .  S
C603        C604   1.414       .  A
C603        C610   1.452       .  S
C604        C605   1.415       .  A
C605        C606   1.410       .  A
C605        C608   1.452       .  S
C606        C609   1.452   1_655  S
C607        N614   1.157       .  T
C608        N613   1.157       .  T
C609        N611   1.157       .  T
C610        N612   1.158       .  T
C615        C616   1.417       .  A
C615        C620   1.417       .  A
C616        C617   1.408       .  A
C616        C621   1.453       .  S
C617        C618   1.413       .  A
C617        C624   1.453       .  S
C618        C619   1.413       .  A
C619        C620   1.414       .  A
C619        C622   1.451       .  S
C620        C623   1.451       .  S
C621        N628   1.158       .  T
C622        N627   1.157       .  T
C623        N625   1.157       .  T
C624        N626   1.157   1_655  T
C629        C630   1.412       .  A
C629        C634   1.411       .  A
C630        C631   1.411       .  A
C630        C635   1.453       .  S
C631        C632   1.416       .  A
C631        C638   1.451       .  S
C632        C633   1.419       .  A
C633        C634   1.412       .  A
C633        C636   1.452       .  S
C634        C637   1.452       .  S
C635        N642   1.157       .  T
C636        N641   1.158       .  T
C637        N639   1.157       .  T
C638        N640   1.157       .  T
C643        C644   1.415       .  A
C643        C648   1.415       .  A
C644        C645   1.414       .  A
C644        C649   1.451       .  S
C645        C646   1.414       .  A
C645        C652   1.451       .  S
C646        C647   1.413       .  A
C647        C648   1.406       .  A
C647        C650   1.453       .  S
C648        C651   1.453       .  S
C649        N656   1.157       .  T
C650        N655   1.157       .  T
C651        N653   1.158       .  T
C652        N654   1.157       .  T
