geometry optimzed in LAMMPS
_audit_creation_date              2020-12-01 
_audit_creation_method            'lammps2cif' 
_symmetry_space_group_name_H-M    'P1' 
_symmetry_Int_Tables_number       1 
_symmetry_cell_setting            triclinic 
loop_ 
_symmetry_equiv_pos_as_xyz 
  x,y,z 
_cell_length_a                    48.89206542 
_cell_length_b                    49.47376116909461 
_cell_length_c                    49.05874697798568 
_cell_angle_alpha                 89.96020830533445 
_cell_angle_beta                  90.16285793871201 
_cell_angle_gamma                 89.93667270868696 
loop_ 
_atom_site_label 
_atom_site_type_symbol 
_atom_site_fract_x 
_atom_site_fract_y 
_atom_site_fract_z 
_atom_site_charge 
O1          O  0.29594157  0.91874080  0.40823613    -0.56800
C2          C  0.39664556  0.89910628  0.40425033     0.75900
O3          O  0.33358294  0.95676507  0.35750864    -0.57900
C4          C  0.30040454  0.90185070  0.42716731     0.75800
C5          C  0.35023615  0.97321273  0.43416427     0.78200
Cd6        Cd  0.34478965  0.92740023  0.39767967     1.37500
O7          O  0.37441166  0.88613091  0.40211476    -0.56800
O8          O  0.32923820  0.95842955  0.43421826    -0.55600
C9          C  0.33584617  0.93876124  0.33939459     0.78200
O10         O  0.36797043  0.96807081  0.41616901    -0.58000
O11         O  0.39488033  0.92457051  0.40282785    -0.56400
O12         O  0.32496674  0.89439931  0.43038935    -0.56400
O13         O  0.34106185  0.91518373  0.34796715    -0.55600
O14         O  0.41327314  0.05610916  0.60937603    -0.56800
C15         C  0.43849114  0.02992383  0.67564685     0.75900
O16         O  0.49662335  0.04245878  0.60416890    -0.57900
C17         C  0.42261447  0.05800202  0.58543723     0.75800
C18         C  0.47191058  0.11961718  0.64085083     0.78200
Cd19       Cd  0.45916727  0.06254170  0.63182791     1.37500
O20         O  0.44714356  0.05366389  0.68033756    -0.56800
O21         O  0.44889668  0.11009926  0.64771784    -0.55600
C22         C  0.50696554  0.02858787  0.62326375     0.78200
O23         O  0.48881569  0.10286875  0.63119505    -0.58000
O24         O  0.43748349  0.02261568  0.65097985    -0.56400
O25         O  0.44775230  0.06338287  0.58338083    -0.56400
O26         O  0.49665347  0.03183861  0.64660170    -0.55600
O27         O  0.58425108  0.84931344  0.57834169    -0.56800
C28         C  0.55872432  0.77742683  0.55956462     0.75900
O29         O  0.56848051  0.84911689  0.49913065    -0.57900
C30         C  0.58976676  0.87151472  0.56666593     0.75800
C31         C  0.64632497  0.80795476  0.52237265     0.78200
Cd32       Cd  0.58947656  0.82129013  0.53590012     1.37500
O33         O  0.55365209  0.80184205  0.56539114    -0.56800
O34         O  0.63856207  0.80996256  0.54689858    -0.55600
C35         C  0.55118118  0.83179420  0.49134682     0.78200
O36         O  0.62791711  0.81088718  0.50443772    -0.58000
O37         O  0.58003407  0.77300082  0.54561668    -0.56400
O38         O  0.59627410  0.87012206  0.54181666    -0.56400
O39         O  0.55249315  0.80900181  0.50281604    -0.55600
O40         O  0.57950974  0.07457342  0.92719604    -0.56800
C41         C  0.54767350  0.14222172  0.95408653     0.75900
O42         O  0.56884405  0.07154656  0.00742281    -0.57900
C43         C  0.58177442  0.05141584  0.93801149     0.75800
C44         C  0.64366133  0.11009230  0.98425296     0.78200
Cd45       Cd  0.58609511  0.10028433  0.97134227     1.37500
O46         O  0.54114693  0.12008251  0.96497209    -0.56800
O47         O  0.63457547  0.11101883  0.96007573    -0.55600
C48         C  0.55735308  0.09017461  0.02089850     0.78200
O49         O  0.62604065  0.10675656  0.00271105    -0.58000
O50         O  0.57290606  0.14530740  0.94876067    -0.56400
O51         O  0.58643891  0.05107788  0.96330807    -0.56400
O52         O  0.56086552  0.11415769  0.01266420    -0.55600
O53         O  0.30733614  0.00967448  0.08179830    -0.56800
C54         C  0.40276776  0.02405516  0.09777832     0.75900
O55         O  0.33688325  0.00358837  0.14228085    -0.57900
C56         C  0.31407400  0.01662981  0.05786786     0.75800
C57         C  0.36421210  0.94558610  0.06192274     0.78200
Cd58       Cd  0.35312089  0.99270238  0.09493747     1.37500
O59         O  0.37991293  0.03610649  0.09728690    -0.56800
O60         O  0.34043575  0.95560735  0.06313750    -0.55600
C61         C  0.33775307  0.97946051  0.15080419     0.78200
O62         O  0.38200594  0.95571903  0.07762616    -0.58000
O63         O  0.40212111  0.99857696  0.09772913    -0.56400
O64         O  0.33910374  0.01452985  0.05185216    -0.56400
O65         O  0.34404146  0.96172159  0.13338316    -0.55600
O66         O  0.41845236  0.86580019  0.88340391    -0.56800
C67         C  0.43906431  0.89844108  0.81332875     0.75900
O68         O  0.50192694  0.87745135  0.88115735    -0.57900
C69         C  0.43105582  0.86472763  0.90598544     0.75800
C70         C  0.46706684  0.80540775  0.84157571     0.78200
Cd71       Cd  0.46082532  0.86253005  0.85504584     1.37500
O72         O  0.43879619  0.90464150  0.83834157    -0.56800
O73         O  0.44391680  0.81664887  0.84353889    -0.55600
C74         C  0.50889789  0.89497871  0.86370879     0.78200
O75         O  0.48764217  0.82073496  0.84408962    -0.58000
O76         O  0.44684386  0.87464901  0.80763953    -0.56400
O77         O  0.45669291  0.86193131  0.90482889    -0.56400
O78         O  0.49611337  0.89475223  0.84133112    -0.55600
O79         O  0.89708735  0.07040025  0.07016295    -0.56800
C80         C  0.92498841  0.14279758  0.05274118     0.75900
O81         O  0.90612546  0.07341165  0.98723946    -0.57900
C82         C  0.89955188  0.04867425  0.05672217     0.75800
C83         C  0.83406870  0.10940705  0.02122773     0.78200
Cd84       Cd  0.89269826  0.09946709  0.02833264     1.37500
O85         O  0.93305065  0.11850462  0.05262715    -0.56800
O86         O  0.84442360  0.10575924  0.04460084    -0.55600
C87         C  0.92354438  0.09036764  0.97895351     0.78200
O88         O  0.85067533  0.10960004  0.00150682    -0.58000
O89         O  0.90143670  0.14712974  0.04279974    -0.56400
O90         O  0.89820409  0.05069063  0.03113968    -0.56400
O91         O  0.92451736  0.11261839  0.99158423    -0.55600
O92         O  0.03277155  0.87057773  0.18507709    -0.56800
C93         C  0.04444918  0.85159519  0.08921555     0.75900
O94         O  0.98450130  0.81835788  0.15418991    -0.57900
C95         C  0.04153027  0.89332137  0.17705324     0.75800
C96         C  0.96842110  0.88771409  0.12477999     0.78200
Cd97       Cd  0.01511524  0.85542932  0.13946653     1.37500
O98         O  0.05704705  0.85527682  0.11152394    -0.56800
O99         O  0.97426504  0.88344656  0.14955851    -0.55600
C100        C  0.00256622  0.80009963  0.15564609     0.78200
O101        O  0.98255658  0.87532840  0.10727963    -0.58000
O102        O  0.01899035  0.84753534  0.09059372    -0.56400
O103        O  0.03979578  0.89780735  0.15176178    -0.56400
O104        O  0.02691705  0.80748817  0.15112869    -0.55600
O105        O  0.10164062  0.02432720  0.90917425    -0.56800
C106        C  0.17299340  0.00507940  0.93214919     0.75900
O107        O  0.09981614  0.94229088  0.91830616    -0.57900
C108        C  0.07840798  0.01357256  0.90564681     0.75800
C109        C  0.13957083  0.97003215  0.84586989     0.78200
Cd110      Cd  0.12775630  0.98112748  0.90281498     1.37500
O111        O  0.14856889  0.00665897  0.94042014    -0.56800
O112        O  0.13403971  0.99362041  0.85414366    -0.55600
C113        C  0.11592776  0.93507838  0.93712843     0.78200
O114        O  0.14085735  0.95179457  0.86391272    -0.58000
O115        O  0.17667504  0.99366547  0.90933343    -0.56400
O116        O  0.07828601  0.98864392  0.90015480    -0.56400
O117        O  0.13840007  0.94753623  0.93863345    -0.55600
O118        O  0.90567422  0.55687689  0.12053312    -0.56800
C119        C  0.91865861  0.52324164  0.19290725     0.75900
O120        O  0.98670856  0.54385235  0.13068502    -0.57900
C121        C  0.92102355  0.55657086  0.09973556     0.75800
C122        C  0.95642390  0.61496398  0.16782905     0.78200
Cd123      Cd  0.94489088  0.55856010  0.15387068     1.37500
O124        O  0.91648094  0.51955371  0.16749279    -0.56800
O125        O  0.93196834  0.60680863  0.16544494    -0.55600
C126        C  0.99198715  0.52436343  0.14649664     0.78200
O127        O  0.97474469  0.59703007  0.16591095    -0.58000
O128        O  0.92994952  0.54508001  0.20044203    -0.56400
O129        O  0.94638302  0.55827692  0.10417022    -0.56400
O130        O  0.97745752  0.52243500  0.16764740    -0.55600
O131        O  0.07548001  0.34903772  0.08308346    -0.56800
C132        C  0.05067363  0.28315645  0.06209194     0.75900
O133        O  0.07599540  0.35309736  0.99912454    -0.57900
C134        C  0.07639927  0.37237316  0.07250911     0.75800
C135        C  0.14296571  0.31242365  0.03402863     0.78200
Cd136      Cd  0.08537536  0.32484974  0.03975910     1.37500
O137        O  0.07618326  0.27913201  0.05980714    -0.56800
O138        O  0.13373980  0.32586008  0.05389004    -0.55600
C139        C  0.05986637  0.33646286  0.98796287     0.78200
O140        O  0.12555588  0.30364304  0.01713702    -0.58000
O141        O  0.04208624  0.30639493  0.05570887    -0.56400
O142        O  0.08295304  0.37362247  0.04764617    -0.56400
O143        O  0.05729109  0.31379819  0.99952351    -0.55600
O144        O  0.84031398  0.41575494  0.93696831    -0.56800
C145        C  0.90955686  0.40916802  0.90398844     0.75900
O146        O  0.85404812  0.46979566  0.85741221    -0.57900
C147        C  0.81574830  0.41669149  0.92891616     0.75800
C148        C  0.86563068  0.48784843  0.93336525     0.78200
Cd149      Cd  0.85972039  0.44078557  0.89855947     1.37500
O150        O  0.88638666  0.39780503  0.90491521    -0.56800
O151        O  0.84243450  0.47733373  0.92927694    -0.55600
C152        C  0.84907576  0.45093087  0.84074602     0.78200
O153        O  0.88523159  0.47834766  0.91961589    -0.58000
O154        O  0.90951368  0.43433856  0.89969323    -0.56400
O155        O  0.81149851  0.42681027  0.90554837    -0.56400
O156        O  0.84887044  0.42728079  0.85055404    -0.55600
O157        O  0.39261911  0.34837253  0.93882623    -0.56800
C158        C  0.41508160  0.27861496  0.96060625     0.75900
O159        O  0.40663799  0.35452997  0.02075431    -0.57900
C160        C  0.38392040  0.37091061  0.94733881     0.75800
C161        C  0.33149691  0.31147789  0.99677993     0.78200
Cd162      Cd  0.38732043  0.32485404  0.98334161     1.37500
O163        O  0.42163934  0.30256792  0.95426595    -0.56800
O164        O  0.34064732  0.30790487  0.97297841    -0.55600
C165        C  0.42632934  0.33883680  0.02618477     0.78200
O166        O  0.34837982  0.31968370  0.01451441    -0.58000
O167        O  0.39460207  0.27588253  0.97619357    -0.56400
O168        O  0.37616656  0.37177447  0.97182035    -0.56400
O169        O  0.42644876  0.31654928  0.01375974    -0.55600
O170        O  0.61106181  0.40088203  0.08694304    -0.56800
C171        C  0.67758705  0.42686177  0.05852923     0.75900
O172        O  0.60206495  0.47972128  0.07907521    -0.57900
C173        C  0.58823641  0.40872220  0.09620594     0.75800
C174        C  0.65314542  0.45684850  0.15024706     0.78200
Cd175      Cd  0.63503567  0.44523702  0.09457439     1.37500
O176        O  0.68309086  0.43341854  0.08290951    -0.56800
O177        O  0.64585568  0.47541283  0.13399394    -0.55600
C178        C  0.61754346  0.49077137  0.06174525     0.78200
O179        O  0.65346562  0.43313691  0.14055370    -0.58000
O180        O  0.65264682  0.42704940  0.05172535    -0.56400
O181        O  0.58769339  0.43222167  0.10618239    -0.56400
O182        O  0.64198293  0.48254607  0.06116653    -0.55600
O183        O  0.54129396  0.56177848  0.88818385    -0.56800
C184        C  0.52203214  0.52293466  0.82250004     0.75900
O185        O  0.45804788  0.54097938  0.89067999    -0.57900
C186        C  0.53064185  0.56087436  0.91161020     0.75800
C187        C  0.48796552  0.61570025  0.84896294     0.78200
Cd188      Cd  0.49699758  0.55897196  0.86284164     1.37500
O189        O  0.51825161  0.51606635  0.84704579    -0.56800
O190        O  0.51086653  0.60419786  0.84634423    -0.55600
C191        C  0.44810399  0.52698868  0.87147620     0.78200
O192        O  0.46842229  0.60082397  0.85665864    -0.58000
O193        O  0.51550356  0.54700972  0.81643953    -0.56400
O194        O  0.50490470  0.55907261  0.91241342    -0.56400
O195        O  0.45866626  0.53020607  0.84819550    -0.55600
O196        O  0.56708693  0.37441799  0.61056933    -0.56800
C197        C  0.54189142  0.39479147  0.68303510     0.75900
O198        O  0.48154820  0.37890604  0.60881306    -0.57900
C199        C  0.55641716  0.37361012  0.58701529     0.75800
C200        C  0.51326016  0.30693430  0.64367345     0.78200
Cd201      Cd  0.52309705  0.36495192  0.63529551     1.37500
O202        O  0.52960166  0.37235046  0.68546016    -0.56800
O203        O  0.53711069  0.31599978  0.63950578    -0.55600
C204        C  0.47588527  0.39848465  0.62437616     0.78200
O205        O  0.49443001  0.32442079  0.64500203    -0.58000
O206        O  0.54809633  0.40173849  0.65902354    -0.56400
O207        O  0.53122677  0.36805073  0.58597377    -0.56400
O208        O  0.49023229  0.40071970  0.64563101    -0.55600
O209        O  0.40187617  0.57460561  0.55837764    -0.56800
C210        C  0.42787985  0.64219489  0.54122353     0.75900
O211        O  0.41226778  0.57372590  0.47931430    -0.57900
C212        C  0.39735100  0.55176690  0.54771202     0.75800
C213        C  0.33673417  0.61584736  0.50421774     0.78200
Cd214      Cd  0.39367950  0.60141560  0.51598766     1.37500
O215        O  0.43674670  0.61950529  0.53348992    -0.56800
O216        O  0.34584403  0.61371904  0.52828048    -0.55600
C217        C  0.42620291  0.59215395  0.46816656     0.78200
O218        O  0.35395109  0.61229118  0.48534781    -0.58000
O219        O  0.40240640  0.64623527  0.53847170    -0.56400
O220        O  0.38936650  0.55195000  0.52321076    -0.56400
O221        O  0.42343257  0.61578986  0.47761180    -0.55600
O222        O  0.60766133  0.53801687  0.39986105    -0.56800
C223        C  0.67780664  0.52383882  0.43233921     0.75900
O224        O  0.61606133  0.45401739  0.41135276    -0.57900
C225        C  0.58578824  0.52441577  0.39862726     0.75800
C226        C  0.65305445  0.49020345  0.33978158     0.78200
Cd227      Cd  0.63821386  0.49760835  0.39723729     1.37500
O228        O  0.65284744  0.52163256  0.43858828    -0.56800
O229        O  0.64807734  0.51327203  0.34972658    -0.55600
C230        C  0.63175280  0.45039888  0.43161535     0.78200
O231        O  0.65284758  0.47067567  0.35648734    -0.58000
O232        O  0.68444325  0.51608637  0.40861204    -0.56400
O233        O  0.58835429  0.49914133  0.39622259    -0.56400
O234        O  0.65166896  0.46645351  0.43378304    -0.55600
O235        O  0.93041265  0.35981771  0.39019360    -0.56800
C236        C  0.94840944  0.38874013  0.32117755     0.75900
O237        O  0.01363003  0.37581661  0.38938624    -0.57900
C238        C  0.94156944  0.36008496  0.41348350     0.75800
C239        C  0.98742908  0.30146054  0.35215782     0.78200
Cd240      Cd  0.97392219  0.35733863  0.36399232     1.37500
O241        O  0.95679539  0.36501153  0.31601230    -0.56800
O242        O  0.96317287  0.31014971  0.35011999    -0.55600
C243        C  0.01976741  0.39322041  0.37152432     0.78200
O244        O  0.00553471  0.31872587  0.35809695    -0.58000
O245        O  0.95057910  0.39655498  0.34559983    -0.56400
O246        O  0.96724719  0.35748452  0.41398701    -0.56400
O247        O  0.00650058  0.39229337  0.34942004    -0.55600
O248        O  0.08124594  0.65434767  0.44263741    -0.56800
C249        C  0.09331331  0.55530570  0.42857896     0.75900
O250        O  0.12919762  0.61967009  0.48985269    -0.57900
C251        C  0.05795621  0.64863974  0.43276527     0.75800
C252        C  0.05720271  0.59516956  0.50571985     0.78200
Cd253      Cd  0.09114572  0.60645899  0.45862297     1.37500
O254        O  0.08326785  0.57647593  0.41801080    -0.56800
O255        O  0.05659295  0.61763189  0.49353982    -0.55600
C256        C  0.14681961  0.62283601  0.47128723     0.78200
O257        O  0.07464371  0.57829044  0.49735527    -0.58000
O258        O  0.10366126  0.55803489  0.45200704    -0.56400
O259        O  0.05165705  0.62384564  0.43254903    -0.56400
O260        O  0.13839770  0.62010602  0.44701634    -0.55600
O261        O  0.88410069  0.53643095  0.59349544    -0.56800
C262        C  0.81432711  0.52224950  0.56279885     0.75900
O263        O  0.87733386  0.45073407  0.58159458    -0.57900
C264        C  0.90686291  0.52432296  0.59283329     0.75800
C265        C  0.84052558  0.48414082  0.65161836     0.78200
Cd266      Cd  0.85556014  0.49454702  0.59467475     1.37500
O267        O  0.83955879  0.52371461  0.55745160    -0.56800
O268        O  0.84403423  0.50788155  0.64272183    -0.55600
C269        C  0.86322216  0.44689492  0.56030081     0.78200
O270        O  0.84275029  0.46541434  0.63424070    -0.58000
O271        O  0.80782944  0.50934008  0.58415416    -0.56400
O272        O  0.90602247  0.49884199  0.59423409    -0.56400
O273        O  0.84456536  0.46399467  0.55566507    -0.55600
O274        O  0.14448138  0.90346441  0.55731451    -0.56800
C275        C  0.07652859  0.89775956  0.59302101     0.75900
O276        O  0.13753411  0.95237207  0.63966599    -0.57900
C277        C  0.16889428  0.89855089  0.56406442     0.75800
C278        C  0.12643667  0.97373430  0.56649050     0.78200
Cd279      Cd  0.12922096  0.92439382  0.59880621     1.37500
O280        O  0.09805892  0.88376477  0.59585001    -0.56800
O281        O  0.14910295  0.96202590  0.57064964    -0.55600
C282        C  0.13946665  0.93337452  0.65680526     0.78200
O283        O  0.10609711  0.96438711  0.57928293    -0.58000
O284        O  0.07949794  0.92308679  0.59391912    -0.56400
O285        O  0.17528599  0.90301731  0.58872779    -0.56400
O286        O  0.13785564  0.90966201  0.64730159    -0.55600
O287        O  0.07462700  0.04688412  0.38438882    -0.56800
C288        C  0.05434235  0.02472440  0.31285083     0.75900
O289        O  0.99290979  0.04133350  0.38631142    -0.57900
C290        C  0.06401634  0.05173117  0.40742279     0.75800
C291        C  0.02346915  0.11381140  0.34698293     0.78200
Cd292      Cd  0.03195353  0.05640874  0.35767552     1.37500
O293        O  0.05710786  0.01741559  0.33743151    -0.56800
O294        O  0.04636687  0.10458876  0.35464760    -0.55600
C295        C  0.98260328  0.02591566  0.36855275     0.78200
O296        O  0.00493130  0.09654927  0.34259666    -0.58000
O297        O  0.04369231  0.04778481  0.30902572    -0.56400
O298        O  0.03936141  0.05944170  0.40724465    -0.56400
O299        O  0.99389188  0.02593485  0.34546596    -0.55600
O300        O  0.89089841  0.85459115  0.41645516    -0.56800
C301        C  0.92246335  0.78203089  0.43190355     0.75900
O302        O  0.90910522  0.85248813  0.49348379    -0.57900
C303        C  0.89120493  0.87614168  0.43046641     0.75800
C304        C  0.83212277  0.81380166  0.46975780     0.78200
Cd305      Cd  0.88944624  0.82435556  0.45738297     1.37500
O306        O  0.92684167  0.80685741  0.42746231    -0.56800
O307        O  0.84019314  0.81582651  0.44533703    -0.55600
C308        C  0.92298225  0.83421523  0.50496842     0.78200
O309        O  0.85039557  0.81552099  0.48790853    -0.58000
O310        O  0.90150350  0.77656547  0.44598778    -0.56400
O311        O  0.88967791  0.87345654  0.45598493    -0.56400
O312        O  0.92078659  0.81066686  0.49521736    -0.55600
C313        C  0.93235443  0.98349047  0.39887577     0.21400
C314        C  0.91896834  0.97118418  0.42087392    -0.38500
C315        C  0.90776828  0.94559996  0.41567106     0.20400
C316        C  0.90972191  0.93317615  0.39044772     0.23000
C317        C  0.92286486  0.94562366  0.36839386    -0.39000
C318        C  0.93406808  0.97119112  0.37358720     0.21800
N319        N  0.94792840  0.00585442  0.39966538    -0.32300
C320        C  0.95976127  0.00767451  0.37478329    -0.09800
C321        C  0.95129335  0.98664928  0.35784867    -0.28600
N322        N  0.90149767  0.90728645  0.39191108    -0.45200
C323        C  0.89474899  0.90307866  0.41832504    -0.04500
C324        C  0.89776831  0.92667783  0.43360877    -0.21900
H325        H  0.91895399  0.98002464  0.44105297     0.19900
H326        H  0.92581562  0.93535259  0.34914942     0.18700
H327        H  0.95877949  0.98189123  0.33766690     0.15000
H328        H  0.89588045  0.92882829  0.45548353     0.14900
H329        H  0.95189863  0.01792197  0.41668798     0.33000
H330        H  0.90295124  0.89274430  0.37656494     0.35800
C331        C  0.12425483  0.01421072  0.50633885     0.21400
C332        C  0.12917643  0.01858804  0.47837617    -0.38500
C333        C  0.10846891  0.03233865  0.46392337     0.20400
C334        C  0.08482960  0.04127364  0.47651190     0.23000
C335        C  0.07995028  0.03696044  0.50433637    -0.39000
C336        C  0.10041751  0.02300034  0.51865934     0.21800
N337        N  0.13840217  0.99791905  0.52336341    -0.32300
C338        C  0.12306483  0.99573130  0.54632569    -0.09800
C339        C  0.09952284  0.01154065  0.54424633    -0.28600
N340        N  0.06691962  0.05083889  0.45805054    -0.45200
C341        C  0.07889212  0.04769174  0.43337071    -0.04500
C342        C  0.10503108  0.03652916  0.43619898    -0.21900
H343        H  0.14694011  0.01029710  0.46824509     0.19900
H344        H  0.06071505  0.04240645  0.51373612     0.18700
H345        H  0.08248349  0.01204122  0.55827778     0.15000
H346        H  0.11873820  0.03039286  0.42005700     0.14900
H347        H  0.15572300  0.98655173  0.51846884     0.33000
H348        H  0.04696770  0.05738591  0.46186753     0.35800
C349        C  0.01781950  0.85774277  0.57597153     0.21400
C350        C  0.00389850  0.83496260  0.56580408    -0.38500
C351        C  0.97800956  0.83997439  0.55422132     0.20400
C352        C  0.96678790  0.86568876  0.55326633     0.23000
C353        C  0.98040281  0.88823554  0.56385724    -0.39000
C354        C  0.00627825  0.88329563  0.57503572     0.21800
N355        N  0.04417322  0.85919906  0.58407521    -0.32300
C356        C  0.04929196  0.88589319  0.58803272    -0.09800
C357        C  0.02604085  0.90138747  0.58291085    -0.28600
N358        N  0.94442332  0.86612750  0.53739342    -0.45200
C359        C  0.94148024  0.84069032  0.52769908    -0.04500
C360        C  0.96165903  0.82358286  0.53821260    -0.21900
H361        H  0.01338666  0.81520289  0.56503413     0.19900
H362        H  0.97235111  0.90850970  0.56159981     0.18700
H363        H  0.02446011  0.92321531  0.58280339     0.15000
H364        H  0.96557237  0.80280103  0.53253783     0.14900
H365        H  0.05823534  0.84331794  0.58505508     0.33000
H366        H  0.93334059  0.88324397  0.53150967     0.35800
C367        C  0.98081244  0.74129078  0.41548247     0.21400
C368        C  0.00914429  0.73600680  0.41375502    -0.38500
C369        C  0.01709543  0.70872102  0.41649254     0.20400
C370        C  0.99807721  0.68834590  0.42003434     0.23000
C371        C  0.96991947  0.69365486  0.42214442    -0.39000
C372        C  0.96205683  0.72085967  0.41994665     0.21800
N373        N  0.96842075  0.76562443  0.41674019    -0.32300
C374        C  0.94176314  0.76073993  0.42278793    -0.09800
C375        C  0.93700945  0.73296807  0.42465762    -0.28600
N376        N  0.01057487  0.66449082  0.42413155    -0.45200
C377        C  0.03784376  0.66942154  0.42400222    -0.04500
C378        C  0.04280476  0.69690670  0.41912280    -0.21900
H379        H  0.02398301  0.75210893  0.41184513     0.19900
H380        H  0.95531515  0.67783971  0.42659506     0.18700
H381        H  0.91827940  0.72306145  0.43078885     0.15000
H382        H  0.06237885  0.70710009  0.41914208     0.14900
H383        H  0.97797617  0.78446336  0.41587094     0.33000
H384        H  0.00103748  0.64618961  0.42881766     0.35800
C385        C  0.96105122  0.56868051  0.57384507     0.21400
C386        C  0.97199819  0.59073973  0.55953533    -0.38500
C387        C  0.99906838  0.58774610  0.55056007     0.20400
C388        C  0.01420017  0.56458407  0.55558988     0.23000
C389        C  0.00339881  0.54269592  0.57022223    -0.39000
C390        C  0.97624809  0.54557395  0.57896290     0.21800
N391        N  0.93465417  0.56477826  0.58045961    -0.32300
C392        C  0.93292788  0.53885181  0.58928918    -0.09800
C393        C  0.95855092  0.52643169  0.58914067    -0.28600
N394        N  0.03782858  0.56507975  0.54162440    -0.45200
C395        C  0.03766391  0.58863396  0.52749655    -0.04500
C396        C  0.01401423  0.60347522  0.53284432    -0.21900
H397        H  0.95970196  0.60813484  0.55406283     0.19900
H398        H  0.01460692  0.52398488  0.57281369     0.18700
H399        H  0.96309758  0.50540554  0.59327668     0.15000
H400        H  0.00749562  0.62204591  0.52310547     0.14900
H401        H  0.91842116  0.57804609  0.57675524     0.33000
H402        H  0.05222127  0.54951428  0.54025580     0.35800
C403        C  0.02354470  0.18612605  0.34965618     0.21400
C404        C  0.03364819  0.21184983  0.35634310    -0.38500
C405        C  0.01564405  0.23352399  0.35186106     0.20400
C406        C  0.98942001  0.22984884  0.34183040     0.23000
C407        C  0.97921912  0.20407645  0.33535666    -0.39000
C408        C  0.99734892  0.18239495  0.33957352     0.21800
N409        N  0.03647197  0.16228393  0.35254215    -0.32300
C410        C  0.01838937  0.14313770  0.34439031    -0.09800
C411        C  0.99375154  0.15492099  0.33607521    -0.28600
N412        N  0.97618276  0.25365169  0.34001265    -0.45200
C413        C  0.99416928  0.27261154  0.34882075    -0.04500
C414        C  0.01900336  0.26082606  0.35636309    -0.21900
H415        H  0.05400955  0.21476410  0.36453712     0.19900
H416        H  0.95863718  0.20110818  0.32775730     0.18700
H417        H  0.97541494  0.14470949  0.32922541     0.15000
H418        H  0.03683668  0.27081517  0.36471724     0.14900
H419        H  0.05610047  0.15916002  0.36039569     0.33000
H420        H  0.95604677  0.25677077  0.33356666     0.35800
C421        C  0.08607032  0.48535836  0.41182245     0.21400
C422        C  0.08104402  0.45815172  0.41850578    -0.38500
C423        C  0.06674583  0.44302724  0.39887564     0.20400
C424        C  0.05855504  0.45405811  0.37422360     0.23000
C425        C  0.06360776  0.48118571  0.36753372    -0.39000
C426        C  0.07742212  0.49643886  0.38734652     0.21800
N427        N  0.09524038  0.50484742  0.42864991    -0.32300
C428        C  0.09170076  0.52857690  0.41514977    -0.09800
C429        C  0.08108811  0.52405153  0.38912116    -0.28600
N430        N  0.04252314  0.43669292  0.36050156    -0.45200
C431        C  0.04003421  0.41459983  0.37665198    -0.04500
C432        C  0.05505382  0.41767614  0.40068795    -0.21900
H433        H  0.08616003  0.44990834  0.43832030     0.19900
H434        H  0.05560972  0.49025694  0.34907222     0.18700
H435        H  0.07443360  0.53911317  0.37452369     0.15000
H436        H  0.05546198  0.40419890  0.41807521     0.14900
H437        H  0.10106007  0.50240586  0.44901248     0.33000
H438        H  0.03208953  0.44054117  0.34229814     0.35800
C439        C  0.89427673  0.39638171  0.51869405     0.21400
C440        C  0.91704700  0.38192884  0.50905665    -0.38500
C441        C  0.91632227  0.37464025  0.48140413     0.20400
C442        C  0.89433478  0.38087226  0.46469757     0.23000
C443        C  0.87155766  0.39528977  0.47432603    -0.39000
C444        C  0.87246263  0.40294973  0.50187930     0.21800
N445        N  0.89217851  0.40925525  0.54274563    -0.32300
C446        C  0.86930332  0.42470596  0.54107172    -0.09800
C447        C  0.85613808  0.42085471  0.51605986    -0.28600
N448        N  0.89988544  0.37452541  0.43863890    -0.45200
C449        C  0.92575543  0.36465547  0.43859890    -0.04500
C450        C  0.93660450  0.36416555  0.46496162    -0.21900
H451        H  0.93486100  0.37828387  0.52169026     0.19900
H452        H  0.85520398  0.40169474  0.46087023     0.18700
H453        H  0.83865921  0.43185467  0.50820545     0.15000
H454        H  0.95725250  0.35887514  0.47095875     0.14900
H455        H  0.90683583  0.40957137  0.55827712     0.33000
H456        H  0.88765454  0.37864489  0.42164937     0.35800
C457        C  0.73740053  0.53959961  0.47152302     0.21400
C458        C  0.76560602  0.54038791  0.47682621    -0.38500
C459        C  0.77322305  0.54046214  0.50442943     0.20400
C460        C  0.75420362  0.53949593  0.52527351     0.23000
C461        C  0.72594926  0.53915655  0.51997004    -0.39000
C462        C  0.71832543  0.53930391  0.49232762     0.21800
N463        N  0.72519130  0.53590693  0.44718587    -0.32300
C464        C  0.69813355  0.53324818  0.45247774    -0.09800
C465        C  0.69304191  0.53559076  0.48038609    -0.28600
N466        N  0.76665874  0.53515578  0.54940637    -0.45200
C467        C  0.79374217  0.53326441  0.54382314    -0.04500
C468        C  0.79863845  0.53709303  0.51609624    -0.21900
H469        H  0.78057587  0.53930912  0.46064891     0.19900
H470        H  0.71104806  0.53717927  0.53612304     0.18700
H471        H  0.67376537  0.53255578  0.49074200     0.15000
H472        H  0.81786469  0.53456198  0.50550274     0.14900
H473        H  0.73484984  0.53353753  0.42838827     0.33000
H474        H  0.75717029  0.53148194  0.56810017     0.35800
C475        C  0.26405351  0.62610874  0.50549243     0.21400
C476        C  0.23784890  0.62708491  0.51727674    -0.38500
C477        C  0.21575896  0.62891243  0.49893564     0.20400
C478        C  0.21959118  0.62976274  0.47100751     0.23000
C479        C  0.24575429  0.62868257  0.45924978    -0.39000
C480        C  0.26781246  0.62678638  0.47755757     0.21800
N481        N  0.28817077  0.62297910  0.51842030    -0.32300
C482        C  0.30748041  0.62146575  0.49865338    -0.09800
C483        C  0.29553675  0.62384395  0.47283987    -0.28600
N484        N  0.19543031  0.62944764  0.45786548    -0.45200
C485        C  0.17594809  0.62805014  0.47741938    -0.04500
C486        C  0.18782905  0.62797232  0.50339218    -0.21900
H487        H  0.23485413  0.62571484  0.53908478     0.19900
H488        H  0.24866209  0.62852147  0.43738810     0.18700
H489        H  0.30564339  0.62269652  0.45327356     0.15000
H490        H  0.17754535  0.62574859  0.52277374     0.14900
H491        H  0.29122735  0.62112632  0.53941346     0.33000
H492        H  0.19243282  0.62866101  0.43680479     0.35800
C493        C  0.47310799  0.55997607  0.42388112     0.21400
C494        C  0.48710098  0.53697021  0.41486693    -0.38500
C495        C  0.51440403  0.54093718  0.40747315     0.20400
C496        C  0.52691823  0.56600608  0.40869830     0.23000
C497        C  0.51273167  0.58920792  0.41723978    -0.39000
C498        C  0.48537110  0.58519344  0.42493497     0.21800
N499        N  0.44899272  0.56028206  0.43680645    -0.32300
C500        C  0.44591571  0.58566666  0.44660370    -0.09800
C501        C  0.46788504  0.60203555  0.43905910    -0.28600
N502        N  0.55398330  0.56362896  0.40434895    -0.45200
C503        C  0.55857237  0.53686218  0.40053954    -0.04500
C504        C  0.53435355  0.52216220  0.40200247    -0.21900
H505        H  0.47803768  0.51703064  0.41566114     0.19900
H506        H  0.52285446  0.60849167  0.41978442     0.18700
H507        H  0.47215379  0.62237229  0.44598324     0.15000
H508        H  0.53200245  0.50041753  0.40128661     0.14900
H509        H  0.43679681  0.54351441  0.44118485     0.33000
H510        H  0.56860723  0.57895692  0.40560010     0.35800
C511        C  0.42976133  0.44411999  0.59194593     0.21400
C512        C  0.41570701  0.45515222  0.56950588    -0.38500
C513        C  0.41045534  0.48307225  0.57072224     0.20400
C514        C  0.41862900  0.49878159  0.59261632     0.23000
C515        C  0.43256367  0.48775787  0.61504542    -0.39000
C516        C  0.43769100  0.45989657  0.61388630     0.21800
N517        N  0.44037516  0.41907587  0.59408501    -0.32300
C518        C  0.45532742  0.41908177  0.61741027    -0.09800
C519        C  0.45370388  0.44402269  0.63052509    -0.28600
N520        N  0.41364014  0.52508384  0.58777349    -0.45200
C521        C  0.40231329  0.52626247  0.56255450    -0.04500
C522        C  0.39981375  0.50042019  0.55133908    -0.21900
H523        H  0.41048894  0.44316302  0.55179651     0.19900
H524        H  0.44008088  0.50021062  0.63157540     0.18700
H525        H  0.46511656  0.45054353  0.64828174     0.15000
H526        H  0.39279051  0.49521713  0.53107061     0.14900
H527        H  0.43942964  0.40374592  0.57948364     0.33000
H528        H  0.41900308  0.54135822  0.60023156     0.35800
C529        C  0.60207683  0.39578417  0.53451220     0.21400
C530        C  0.62393598  0.41044037  0.52332058    -0.38500
C531        C  0.62320457  0.41411878  0.49491063     0.20400
C532        C  0.60227434  0.40402954  0.47880006     0.23000
C533        C  0.58055444  0.38919055  0.48997422    -0.39000
C534        C  0.58124289  0.38559047  0.51836546     0.21800
N535        N  0.59659233  0.39182236  0.56112962    -0.32300
C536        C  0.57196817  0.37922046  0.56188290    -0.09800
C537        C  0.56188374  0.37489979  0.53561386    -0.28600
N538        N  0.60409680  0.41367369  0.45318145    -0.45200
C539        C  0.62619588  0.43021761  0.45303568    -0.04500
C540        C  0.63889011  0.43056473  0.47856634    -0.21900
H541        H  0.63954748  0.41961588  0.53596119     0.19900
H542        H  0.56351504  0.38231802  0.47767847     0.18700
H543        H  0.54231946  0.36632308  0.52995826     0.15000
H544        H  0.65549572  0.44351722  0.48508621     0.14900
H545        H  0.60814179  0.39854335  0.57773798     0.33000
H546        H  0.58981210  0.41111094  0.43752453     0.35800
C547        C  0.53829932  0.46490650  0.78182848     0.21400
C548        C  0.53691628  0.43739075  0.77479085    -0.38500
C549        C  0.54322502  0.43100003  0.74763129     0.20400
C550        C  0.55070797  0.45053405  0.72890278     0.23000
C551        C  0.55189709  0.47816545  0.73588703    -0.39000
C552        C  0.54518940  0.48461073  0.76304058     0.21800
N553        N  0.53082603  0.47617072  0.80563148    -0.32300
C554        C  0.53230534  0.50332266  0.80204615    -0.09800
C555        C  0.54141769  0.50940399  0.77571709    -0.28600
N556        N  0.55328760  0.43954945  0.70390167    -0.45200
C557        C  0.54693835  0.41293265  0.70656449    -0.04500
C558        C  0.54075153  0.40684828  0.73365382    -0.21900
H559        H  0.53016391  0.42218393  0.78913596     0.19900
H560        H  0.55644733  0.49361791  0.72094968     0.18700
H561        H  0.54360888  0.52922846  0.76664825     0.15000
H562        H  0.53345393  0.38779470  0.74166563     0.14900
H563        H  0.52348681  0.46601400  0.82277287     0.33000
H564        H  0.55713581  0.44993074  0.68576355     0.35800
C565        C  0.66079072  0.48344443  0.21790522     0.21400
C566        C  0.65824069  0.50294428  0.23865011    -0.38500
C567        C  0.65950840  0.49316693  0.26558428     0.20400
C568        C  0.66295382  0.46600310  0.27138795     0.23000
C569        C  0.66554416  0.44652328  0.25065422    -0.39000
C570        C  0.66438971  0.45630337  0.22373916     0.21800
N571        N  0.65801075  0.48726239  0.19082987    -0.32300
C572        C  0.65960589  0.46237873  0.17926790    -0.09800
C573        C  0.66396192  0.44259674  0.19917616    -0.28600
N574        N  0.66197416  0.46165323  0.29849172    -0.45200
C575        C  0.65788296  0.48618545  0.31018465    -0.04500
C576        C  0.65631661  0.50637208  0.29024707    -0.21900
H577        H  0.65472396  0.52408530  0.23414548     0.19900
H578        H  0.66751064  0.42518794  0.25515060     0.18700
H579        H  0.66482132  0.42093151  0.19624549     0.15000
H580        H  0.65234650  0.52767783  0.29332061     0.14900
H581        H  0.65376289  0.50550843  0.18095717     0.33000
H582        H  0.66317556  0.44299454  0.30839701     0.35800
C583        C  0.60210142  0.53318729  0.00478193     0.21400
C584        C  0.60490483  0.54230594  0.97774748    -0.38500
C585        C  0.58092232  0.55219482  0.96533232     0.20400
C586        C  0.55619909  0.55320627  0.97903781     0.23000
C587        C  0.55354051  0.54450539  0.00605161    -0.39000
C588        C  0.57729135  0.53433700  0.01826386     0.21800
N589        N  0.62048123  0.51910380  0.01958778    -0.32300
C590        C  0.60706700  0.51107957  0.04240922    -0.09800
C591        C  0.58022019  0.52043891  0.04236008    -0.28600
N592        N  0.53563086  0.55883091  0.96180624    -0.45200
C593        C  0.54704900  0.56083878  0.93679347    -0.04500
C594        C  0.57540166  0.55758679  0.93820812    -0.21900
H595        H  0.62378539  0.53988488  0.96653705     0.19900
H596        H  0.53387658  0.54366326  0.01610182     0.18700
H597        H  0.56428229  0.51564307  0.05684523     0.15000
H598        H  0.58954455  0.55627454  0.92132641     0.14900
H599        H  0.64014766  0.51344828  0.01355093     0.33000
H600        H  0.51477620  0.55869535  0.96638811     0.35800
C601        C  0.49080866  0.34777242  0.05907348     0.21400
C602        C  0.51918303  0.34411325  0.06153048    -0.38500
C603        C  0.53311725  0.36346645  0.07711387     0.20400
C604        C  0.51969477  0.38475402  0.08957986     0.23000
C605        C  0.49122565  0.38849326  0.08701358    -0.39000
C606        C  0.47730867  0.36927923  0.07105801     0.21800
N607        N  0.47372018  0.33360515  0.04314396    -0.32300
C608        C  0.44917241  0.34625410  0.04440832    -0.09800
C609        C  0.45049019  0.36864098  0.06176771    -0.28600
N610        N  0.53787910  0.40220589  0.10024616    -0.45200
C611        C  0.56303552  0.39238000  0.09398969    -0.04500
C612        C  0.56087065  0.36792287  0.07999319    -0.21900
H613        H  0.52984141  0.32818973  0.05077777     0.19900
H614        H  0.48095040  0.40594165  0.09549707     0.18700
H615        H  0.43452879  0.38326740  0.06579293     0.15000
H616        H  0.57725640  0.35642245  0.07077089     0.14900
H617        H  0.47892987  0.31728857  0.03067148     0.33000
H618        H  0.53343782  0.42091954  0.10904604     0.35800
C619        C  0.40146017  0.47895344  0.89913014     0.21400
C620        C  0.38642950  0.46692826  0.92028603    -0.38500
C621        C  0.38476818  0.43858183  0.91963549     0.20400
C622        C  0.39719705  0.42333766  0.89948409     0.23000
C623        C  0.41158826  0.43536957  0.87801817    -0.39000
C624        C  0.41301820  0.46366682  0.87850565     0.21800
N625        N  0.41045990  0.50468110  0.89792837    -0.32300
C626        C  0.42762548  0.50569348  0.87624601    -0.09800
C627        C  0.42917733  0.48066754  0.86335919    -0.28600
N628        N  0.39663066  0.39690242  0.90581895    -0.45200
C629        C  0.38396264  0.39531671  0.93027648    -0.04500
C630        C  0.37577979  0.42080779  0.93927872    -0.21900
H631        H  0.37846327  0.47858416  0.93716185     0.19900
H632        H  0.42261370  0.42348102  0.86313301     0.18700
H633        H  0.44322075  0.47483338  0.84737947     0.15000
H634        H  0.36692840  0.42588025  0.95882005     0.14900
H635        H  0.40710624  0.51987077  0.91232402     0.33000
H636        H  0.40629678  0.38122542  0.89531619     0.35800
C637        C  0.77204717  0.40474586  0.98519059     0.21400
C638        C  0.76596451  0.40571584  0.01312053    -0.38500
C639        C  0.73855235  0.41077004  0.01966317     0.20400
C640        C  0.71864081  0.41420734  0.99984936     0.23000
C641        C  0.72472890  0.41345502  0.97190784    -0.39000
C642        C  0.75223278  0.40873435  0.96535748     0.21800
N643        N  0.79704015  0.40405059  0.97398179    -0.32300
C644        C  0.79329180  0.40845020  0.94695483    -0.09800
C645        C  0.76554083  0.41088904  0.94068235    -0.28600
N646        N  0.69438843  0.41979452  0.01131358    -0.45200
C647        C  0.69890451  0.42009671  0.03859492    -0.04500
C648        C  0.72625867  0.41474576  0.04462878    -0.21900
H649        H  0.78166919  0.40391762  0.02861306     0.19900
H650        H  0.70941490  0.41750210  0.95645419     0.18700
H651        H  0.75658137  0.41645686  0.92127045     0.15000
H652        H  0.73590141  0.41428477  0.06450962     0.14900
H653        H  0.81565270  0.40348822  0.98445837     0.33000
H654        H  0.67603892  0.42394653  0.00117571     0.35800
C655        C  0.83818104  0.44985422  0.76830119     0.21400
C656        C  0.83677149  0.43847083  0.74206650    -0.38500
C657        C  0.83429369  0.45687535  0.72032603     0.20400
C658        C  0.83319847  0.48453559  0.72440552     0.23000
C659        C  0.83432537  0.49589791  0.75066960    -0.39000
C660        C  0.83699355  0.47750475  0.77238569     0.21800
N661        N  0.84225851  0.43682874  0.79210415    -0.32300
C662        C  0.84380764  0.45631262  0.81151287    -0.09800
C663        C  0.84054447  0.48193760  0.79997391    -0.28600
N664        N  0.83365028  0.49775880  0.70038138    -0.45200
C665        C  0.83527785  0.47843479  0.68081054    -0.04500
C666        C  0.83530354  0.45266756  0.69250102    -0.21900
H667        H  0.83855371  0.41691622  0.73874328     0.19900
H668        H  0.83424845  0.51753798  0.75389125     0.18700
H669        H  0.84125656  0.50124179  0.81031606     0.15000
H670        H  0.83774249  0.43351674  0.68213226     0.14900
H671        H  0.84452817  0.41601366  0.79489162     0.33000
H672        H  0.83441796  0.51866988  0.69754990     0.35800
C673        C  0.26414308  0.31231913  0.02426133     0.21400
C674        C  0.24358009  0.32057226  0.04223295    -0.38500
C675        C  0.21694917  0.31299301  0.03511692     0.20400
C676        C  0.21111577  0.29822300  0.01186173     0.23000
C677        C  0.23175567  0.29008696  0.99368099    -0.39000
C678        C  0.25851601  0.29784807  0.00075618     0.21800
N679        N  0.29088296  0.31802339  0.02609317    -0.32300
C680        C  0.30251209  0.30742641  0.00349800    -0.09800
C681        C  0.28300298  0.29467562  0.98708367    -0.28600
N682        N  0.18391576  0.29502587  0.00901929    -0.45200
C683        C  0.17251785  0.30808708  0.03050736    -0.04500
C684        C  0.19248949  0.31936342  0.04727925    -0.21900
H685        H  0.24794439  0.33260337  0.06014206     0.19900
H686        H  0.22724318  0.27916720  0.97509764     0.18700
H687        H  0.28619491  0.28503694  0.96754943     0.15000
H688        H  0.18945189  0.33168618  0.06524402     0.14900
H689        H  0.30050040  0.32932938  0.04131840     0.33000
H690        H  0.17371341  0.28555663  0.99291360     0.35800
C691        C  0.00640655  0.34527578  0.93979827     0.21400
C692        C  0.97933028  0.34078469  0.93119162    -0.38500
C693        C  0.96554141  0.36332833  0.92043497     0.20400
C694        C  0.97807944  0.38827479  0.91790649     0.23000
C695        C  0.00516460  0.39270333  0.92623264    -0.39000
C696        C  0.01873499  0.37036856  0.93749775     0.21800
N697        N  0.02159549  0.32884553  0.95557824    -0.32300
C698        C  0.04322665  0.34379882  0.96406924    -0.09800
C699        C  0.04251900  0.36958429  0.95261947    -0.28600
N700        N  0.95988885  0.40719151  0.91035465    -0.45200
C701        C  0.93544495  0.39446198  0.90839275    -0.04500
C702        C  0.93814291  0.36695235  0.91428435    -0.21900
H703        H  0.96905238  0.32173694  0.93470889     0.19900
H704        H  0.01422638  0.41265685  0.92605332     0.18700
H705        H  0.05556228  0.38654347  0.95764810     0.15000
H706        H  0.92199127  0.35208240  0.91573970     0.14900
H707        H  0.01586380  0.30981844  0.96280359     0.33000
H708        H  0.96355163  0.42789868  0.90840737     0.35800
C709        C  0.92339040  0.44478720  0.28270432     0.21400
C710        C  0.91680555  0.47206676  0.27865533    -0.38500
C711        C  0.91225367  0.47993527  0.25161610     0.20400
C712        C  0.91381728  0.46187182  0.23014440     0.23000
C713        C  0.92055613  0.43443128  0.23421961    -0.39000
C714        C  0.92538677  0.42658967  0.26139685     0.21800
N715        N  0.93060562  0.43315068  0.30631267    -0.32300
C716        C  0.93738271  0.40729111  0.30032792    -0.09800
C717        C  0.93444118  0.40231003  0.27239927    -0.28600
N718        N  0.91257345  0.47517972  0.20623562    -0.45200
C719        C  0.91119227  0.50189463  0.21252767    -0.04500
C720        C  0.91032626  0.50554872  0.24067850    -0.21900
H721        H  0.91676075  0.48646550  0.29525840     0.19900
H722        H  0.92325052  0.42058806  0.21736261     0.18700
H723        H  0.93918952  0.38385845  0.26155152     0.15000
H724        H  0.91155689  0.52447919  0.25166062     0.14900
H725        H  0.93176535  0.44257732  0.32532638     0.33000
H726        H  0.91588426  0.46687629  0.18696155     0.35800
C727        C  0.05767780  0.43838073  0.09462548     0.21400
C728        C  0.05147229  0.46582312  0.09115985    -0.38500
C729        C  0.03770922  0.47814359  0.11284064     0.20400
C730        C  0.03038437  0.46415624  0.13615151     0.23000
C731        C  0.03642192  0.43656662  0.13953755    -0.39000
C732        C  0.05047391  0.42426465  0.11789868     0.21800
N733        N  0.06905656  0.42183251  0.07621674    -0.32300
C734        C  0.06905883  0.39692524  0.08768217    -0.09800
C735        C  0.05778581  0.39760259  0.11379217    -0.28600
N736        N  0.01503677  0.47982645  0.15248256    -0.45200
C737        C  0.01240407  0.50380779  0.13929566    -0.04500
C738        C  0.02653605  0.50359119  0.11467429    -0.21900
H739        H  0.05619332  0.47657025  0.07253285     0.19900
H740        H  0.02986342  0.42531507  0.15727903     0.18700
H741        H  0.05404076  0.38067599  0.12725731     0.15000
H742        H  0.02654850  0.51909730  0.09909365     0.14900
H743        H  0.07527977  0.42695732  0.05649735     0.33000
H744        H  0.00519132  0.47388008  0.17038769     0.35800
C745        C  0.89400683  0.53019054  0.98450324     0.21400
C746        C  0.91607041  0.53919946  0.00037728    -0.38500
C747        C  0.90999672  0.54588783  0.02743516     0.20400
C748        C  0.88384262  0.54398423  0.03798541     0.23000
C749        C  0.86166083  0.53506232  0.02202669    -0.39000
C750        C  0.86778478  0.52812524  0.99489829     0.21800
N751        N  0.89553004  0.51863228  0.95980873    -0.32300
C752        C  0.87034810  0.50852205  0.95448468    -0.09800
C753        C  0.85224995  0.51459557  0.97564968    -0.28600
N754        N  0.88406168  0.54883018  0.06502263    -0.45200
C755        C  0.91057446  0.55361046  0.07165899    -0.04500
C756        C  0.92727694  0.55212196  0.04869821    -0.21900
H757        H  0.93680470  0.53933627  0.99269645     0.19900
H758        H  0.84150118  0.53210977  0.03057816     0.18700
H759        H  0.83155510  0.50725350  0.97811434     0.15000
H760        H  0.94934542  0.55372232  0.04797098     0.14900
H761        H  0.91333128  0.51535923  0.94854783     0.33000
H762        H  0.86749979  0.54750772  0.07834688     0.35800
C763        C  0.14362674  0.96919781  0.77303577     0.21400
C764        C  0.14178035  0.97988444  0.74660214    -0.38500
C765        C  0.14317649  0.96106262  0.72528168     0.20400
C766        C  0.14599255  0.93358245  0.72980647     0.23000
C767        C  0.14785435  0.92284480  0.75633676    -0.39000
C768        C  0.14662891  0.94175643  0.77773482     0.21800
N769        N  0.14169278  0.98281905  0.79666863    -0.32300
C770        C  0.14341834  0.96397147  0.81667088    -0.09800
C771        C  0.14666643  0.93812419  0.80566628    -0.28600
N772        N  0.14566370  0.91997308  0.70598156    -0.45200
C773        C  0.14267902  0.93903303  0.68623493    -0.04500
C774        C  0.14115250  0.96483147  0.69755162    -0.21900
H775        H  0.13902380  0.00128638  0.74289866     0.19900
H776        H  0.14967598  0.90135262  0.76006535     0.18700
H777        H  0.14782298  0.91915305  0.81660937     0.15000
H778        H  0.13813481  0.98378021  0.68691446     0.14900
H779        H  0.13855272  0.00357818  0.79902629     0.33000
H780        H  0.14684851  0.89905528  0.70335185     0.35800
C781        C  0.06766471  0.96904366  0.26812300     0.21400
C782        C  0.07031720  0.94145687  0.26161176    -0.38500
C783        C  0.06421480  0.93429964  0.23452255     0.20400
C784        C  0.05643888  0.95326171  0.21524302     0.23000
C785        C  0.05372268  0.98083075  0.22176239    -0.39000
C786        C  0.05957902  0.98794434  0.24890946     0.21800
N787        N  0.06899295  0.98035187  0.29308091    -0.32300
C788        C  0.06136103  0.00657541  0.28987906    -0.09800
C789        C  0.05567808  0.01209896  0.26251021    -0.28600
N790        N  0.04927764  0.94106150  0.19174667    -0.45200
C791        C  0.05189229  0.91408522  0.19619613    -0.04500
C792        C  0.06140907  0.90911448  0.22259416    -0.21900
H793        H  0.07530702  0.92644113  0.27689585     0.19900
H794        H  0.04621622  0.99545994  0.20712155     0.18700
H795        H  0.04748706  0.03065180  0.25408467     0.15000
H796        H  0.06421447  0.88965260  0.23229572     0.14900
H797        H  0.07279950  0.97033464  0.31145056     0.33000
H798        H  0.04112646  0.95039933  0.17441330     0.35800
C799        C  0.99864453  0.72831385  0.16561976     0.21400
C800        C  0.00819263  0.70152603  0.16640829    -0.38500
C801        C  0.98812758  0.68145176  0.16959176     0.20400
C802        C  0.96054992  0.68746669  0.17148943     0.23000
C803        C  0.95099080  0.71431915  0.17080173    -0.39000
C804        C  0.97112077  0.73444756  0.16791881     0.21800
N805        N  0.01348985  0.75090550  0.16166714    -0.32300
C806        C  0.99532161  0.77166029  0.16153849    -0.09800
C807        C  0.96871284  0.76216827  0.16546429    -0.28600
N808        N  0.94555196  0.66458467  0.17242501    -0.45200
C809        C  0.96376477  0.64385647  0.17118134    -0.04500
C810        C  0.99048551  0.65368021  0.16963374    -0.21900
H811        H  0.02964568  0.69661555  0.16415648     0.19900
H812        H  0.92942917  0.71916923  0.17186358     0.18700
H813        H  0.95002200  0.77390832  0.16560474     0.15000
H814        H  0.00907876  0.64202486  0.16730200     0.14900
H815        H  0.03458026  0.75206101  0.15854277     0.33000
H816        H  0.92424138  0.66316545  0.17275574     0.35800
C817        C  0.08225143  0.88940811  0.98199651     0.21400
C818        C  0.05949732  0.87646630  0.99344745    -0.38500
C819        C  0.06312889  0.86647631  0.01997115     0.20400
C820        C  0.08753006  0.86932693  0.03409049     0.23000
C821        C  0.11022496  0.88237291  0.02267224    -0.39000
C822        C  0.10664866  0.89222342  0.99610408     0.21800
N823        N  0.08316644  0.90287159  0.95822765    -0.32300
C824        C  0.10823759  0.91448589  0.95728113    -0.09800
C825        C  0.12354927  0.90813758  0.98045163    -0.28600
N826        N  0.08463190  0.86155951  0.06015590    -0.45200
C827        C  0.05811577  0.85416619  0.06278037    -0.04500
C828        C  0.04419076  0.85640518  0.03801242    -0.21900
H829        H  0.03998416  0.87548446  0.98301564     0.19900
H830        H  0.12882886  0.88583315  0.03415682     0.18700
H831        H  0.14352582  0.91580260  0.98601880     0.15000
H832        H  0.02246127  0.85399530  0.03447852     0.14900
H833        H  0.06712002  0.90544829  0.94435733     0.33000
H834        H  0.09904871  0.86365961  0.07575683     0.35800
C835        C  0.97947179  0.18660344  0.07361221     0.21400
C836        C  0.00708060  0.19372946  0.07750580    -0.38500
C837        C  0.01298180  0.22151761  0.07643634     0.20400
C838        C  0.99277103  0.24069492  0.07219704     0.23000
C839        C  0.96521396  0.23360563  0.06849839    -0.39000
C840        C  0.95938223  0.20586470  0.06921365     0.21800
N841        N  0.96925016  0.16158915  0.07003984    -0.32300
C842        C  0.94259570  0.16493157  0.06291548    -0.09800
C843        C  0.93562707  0.19229141  0.06255487    -0.28600
N844        N  0.00381904  0.26526937  0.06868024    -0.45200
C845        C  0.03129140  0.26183875  0.07019108    -0.04500
C846        C  0.03784789  0.23483719  0.07541540    -0.21900
H847        H  0.02302248  0.17865239  0.07947611     0.19900
H848        H  0.94971543  0.24851326  0.06367146     0.18700
H849        H  0.91638303  0.20113266  0.05618380     0.15000
H850        H  0.05802324  0.22582793  0.07603135     0.14900
H851        H  0.98020808  0.14347521  0.07050794     0.33000
H852        H  0.99336593  0.28295534  0.06341321     0.35800
C853        C  0.96893547  0.05770389  0.93301980     0.21400
C854        C  0.98077075  0.03470617  0.92117299    -0.38500
C855        C  0.00874431  0.03654868  0.91520266     0.20400
C856        C  0.02392429  0.05955007  0.92060161     0.23000
C857        C  0.01199531  0.08271922  0.93210762    -0.39000
C858        C  0.98395647  0.08089434  0.93806626     0.21800
N859        N  0.94410971  0.05935578  0.94465194    -0.32300
C860        C  0.94336435  0.08363733  0.95743803    -0.09800
C861        C  0.96762705  0.09786601  0.95325788    -0.28600
N862        N  0.05074647  0.05487399  0.91646211    -0.45200
C863        C  0.05257220  0.02866681  0.90854996    -0.04500
C864        C  0.02677813  0.01674714  0.90717971    -0.21900
H865        H  0.96946585  0.01608769  0.91852084     0.19900
H866        H  0.02403257  0.10021464  0.93770976     0.18700
H867        H  0.97377426  0.11657618  0.96290913     0.15000
H868        H  0.02208179  0.99578586  0.90294932     0.14900
H869        H  0.92969545  0.04384826  0.94610205     0.33000
H870        H  0.06689908  0.06811957  0.92043242     0.35800
C871        C  0.91323629  0.97968072  0.07267234     0.21400
C872        C  0.92009594  0.95283775  0.06669193    -0.38500
C873        C  0.92792603  0.93692305  0.08898860     0.20400
C874        C  0.92878256  0.94694890  0.11532797     0.23000
C875        C  0.92195175  0.97391298  0.12129007    -0.39000
C876        C  0.91414292  0.98989913  0.09891830     0.21800
N877        N  0.90718664  0.99923713  0.05472755    -0.32300
C878        C  0.90425393  0.02217717  0.06949617    -0.09800
C879        C  0.90832842  0.01721176  0.09722749    -0.28600
N880        N  0.94054404  0.92894404  0.13223248    -0.45200
C881        C  0.94785487  0.90769534  0.11640052    -0.04500
C882        C  0.93978031  0.91170464  0.08942659    -0.21900
H883        H  0.92066541  0.94529679  0.04599146     0.19900
H884        H  0.92387992  0.98217179  0.14162786     0.18700
H885        H  0.90816836  0.03175201  0.11369770     0.15000
H886        H  0.94479566  0.89928585  0.07197492     0.14900
H887        H  0.90605150  0.99727087  0.03355193     0.33000
H888        H  0.94603639  0.93220588  0.15255080     0.35800
C889        C  0.48781505  0.73601488  0.83644826     0.21400
C890        C  0.50616659  0.71411038  0.83667505    -0.38500
C891        C  0.49432496  0.68831137  0.83877653     0.20400
C892        C  0.46634873  0.68458823  0.84079474     0.23000
C893        C  0.44799322  0.70648077  0.84041969    -0.39000
C894        C  0.45981628  0.73226974  0.83806947     0.21800
N895        N  0.49397504  0.76255434  0.83626194    -0.32300
C896        C  0.46972918  0.77585021  0.83777811    -0.09800
C897        C  0.44796504  0.75760101  0.83871220    -0.28600
N898        N  0.46036045  0.65821202  0.84410393    -0.45200
C899        C  0.48469340  0.64500282  0.84400687    -0.04500
C900        C  0.50632016  0.66311053  0.84062207    -0.21900
H901        H  0.52809417  0.71696892  0.83586700     0.19900
H902        H  0.42613872  0.70368708  0.84242812     0.18700
H903        H  0.42645697  0.76224431  0.84101101     0.15000
H904        H  0.52797273  0.65853114  0.84051468     0.14900
H905        H  0.51351098  0.77108039  0.83620516     0.33000
H906        H  0.44097992  0.64977946  0.84681583     0.35800
C907        C  0.27273801  0.02586728  0.99867715     0.21400
C908        C  0.26557163  0.02095849  0.97133375    -0.38500
C909        C  0.23743609  0.02137640  0.96540224     0.20400
C910        C  0.21800781  0.02664209  0.98518360     0.23000
C911        C  0.22515912  0.03156538  0.01243560    -0.39000
C912        C  0.25318551  0.03078920  0.01842848     0.21800
N913        N  0.29753477  0.02272621  0.01021287    -0.32300
C914        C  0.29359438  0.02501421  0.03749252    -0.09800
C915        C  0.26627045  0.03044410  0.04333897    -0.28600
N916        N  0.19267219  0.02304751  0.97521116    -0.45200
C917        C  0.19584313  0.01506062  0.94899305    -0.04500
C918        C  0.22349644  0.01401207  0.94200619    -0.21900
H919        H  0.28065744  0.01554987  0.95617462     0.19900
H920        H  0.20988961  0.03409633  0.02816489     0.18700
H921        H  0.25683223  0.03144333  0.06324422     0.15000
H922        H  0.23223423  0.00701330  0.92303017     0.14900
H923        H  0.31550529  0.01682357  0.00037137     0.33000
H924        H  0.17439517  0.02419266  0.98612364     0.35800
C925        C  0.37167593  0.90291274  0.00383761     0.21400
C926        C  0.36578646  0.89427464  0.97714953    -0.38500
C927        C  0.38746207  0.88191240  0.96309560     0.20400
C928        C  0.41301014  0.87840626  0.97484189     0.23000
C929        C  0.41887343  0.88701970  0.00144911    -0.39000
C930        C  0.39728238  0.89939388  0.01542508     0.21800
N931        N  0.35573568  0.91806440  0.02013940    -0.32300
C932        C  0.37145186  0.92449349  0.04203909    -0.09800
C933        C  0.39737622  0.91294401  0.03992943    -0.28600
N934        N  0.43107748  0.86958725  0.95631439    -0.45200
C935        C  0.41721046  0.86794765  0.93241531    -0.04500
C936        C  0.38976345  0.87490521  0.93592422    -0.21900
H937        H  0.34627659  0.89832037  0.96748649     0.19900
H938        H  0.43924193  0.88564793  0.01005090     0.18700
H939        H  0.41470025  0.91601529  0.05335875     0.15000
H940        H  0.37430959  0.87709833  0.92023670     0.14900
H941        H  0.33619608  0.92539470  0.01561582     0.33000
H942        H  0.45210614  0.86709169  0.95925187     0.35800
C943        C  0.48694401  0.18260962  0.95297616     0.21400
C944        C  0.46011704  0.18921694  0.96059710    -0.38500
C945        C  0.45114478  0.21514649  0.95336888     0.20400
C946        C  0.46765026  0.23317149  0.93946977     0.23000
C947        C  0.49459632  0.22650452  0.93177402    -0.39000
C948        C  0.50368299  0.20048823  0.93918632     0.14600
N949        N  0.50056365  0.15991798  0.95906031    -0.32300
C950        C  0.52626908  0.16292207  0.94934153    -0.09800
C951        C  0.52912521  0.18815456  0.93672709    -0.28600
N952        N  0.45562132  0.25768222  0.93808375    -0.45200
C953        C  0.43154476  0.25524161  0.95169810    -0.04500
C954        C  0.42782336  0.22886972  0.96100624    -0.21900
H955        H  0.44756647  0.17555443  0.97242593     0.19900
H956        H  0.50788753  0.24093662  0.92187021     0.18700
H957        H  0.54740574  0.19660279  0.92774072     0.15000
H958        H  0.41159198  0.22145638  0.97397361     0.14900
H959        H  0.49279538  0.14314840  0.97032058     0.33000
H960        H  0.46408242  0.27503399  0.93065965     0.35800
C961        C  0.71164918  0.11265060  0.01241826     0.21400
C962        C  0.73217751  0.11277967  0.03268854    -0.38500
C963        C  0.75937559  0.11332435  0.02319813     0.20400
C964        C  0.76547904  0.11370003  0.99566750     0.23000
C965        C  0.74504707  0.11340407  0.97553362    -0.39000
C966        C  0.71801291  0.11294282  0.98495966     0.21800
N967        N  0.68428294  0.11193651  0.01586183    -0.32300
C968        C  0.67326697  0.11196958  0.99037113    -0.09800
C969        C  0.69372339  0.11243293  0.97064981    -0.28600
N970        N  0.79266649  0.11333003  0.99171958    -0.45200
C971        C  0.80424452  0.11246956  0.01683605    -0.04500
C972        C  0.78410936  0.11256998  0.03708308    -0.21900
H973        H  0.72735363  0.11225740  0.05420031     0.19900
H974        H  0.74987256  0.11334939  0.95401568     0.18700
H975        H  0.69115990  0.11207941  0.94873259     0.15000
H976        H  0.78713814  0.11140223  0.05891399     0.14900
H977        H  0.67376392  0.11127078  0.03435732     0.33000
H978        H  0.80274713  0.11282240  0.97298374     0.35800
C979        C  0.50272135  0.08418520  0.06805289     0.21400
C980        C  0.47613052  0.09019177  0.07725957    -0.38500
C981        C  0.46110073  0.06817922  0.08750633     0.20400
C982        C  0.47215232  0.04241932  0.08896017     0.23000
C983        C  0.49854759  0.03651162  0.07994447    -0.39000
C984        C  0.51323399  0.05820571  0.06930048     0.21800
N985        N  0.51904547  0.10004713  0.05283886    -0.32300
C986        C  0.53947874  0.08370371  0.04391750    -0.09800
C987        C  0.53674225  0.05768144  0.05417599    -0.28600
N988        N  0.45296605  0.02425273  0.09526059    -0.45200
C989        C  0.42920631  0.03810820  0.09716361    -0.04500
C990        C  0.43343074  0.06575881  0.09304893    -0.21900
H991        H  0.46702785  0.10995797  0.07447155     0.19900
H992        H  0.50619721  0.01598605  0.07905613     0.18700
H993        H  0.54851622  0.03998366  0.04862106     0.15000
H994        H  0.41801827  0.08140280  0.09144587     0.14900
H995        H  0.51489130  0.11977239  0.04641757     0.33000
H996        H  0.45544972  0.00327381  0.09557501     0.35800
C997        C  0.55392749  0.94268560  0.89436248     0.21400
C998        C  0.56813987  0.95442448  0.91625233    -0.38500
C999        C  0.57243580  0.98244208  0.91452122     0.20400
C1000       C  0.56327435  0.99770130  0.89265130     0.23000
C1001       C  0.54920520  0.98592257  0.87066473    -0.39000
C1002       C  0.54503666  0.95787669  0.87233134     0.21800
N1003       N  0.54411708  0.91730691  0.89292968    -0.32300
C1004       C  0.52888371  0.91634147  0.86982437    -0.09800
C1005       C  0.52931596  0.94114635  0.85626085    -0.28600
N1006       N  0.56705706  0.02426678  0.89738956    -0.45200
C1007       C  0.57836181  0.02595139  0.92261539    -0.04500
C1008       C  0.58236801  0.00024618  0.93372568    -0.21900
H1009       H  0.57405254  0.94286005  0.93405980     0.19900
H1010       H  0.54083014  0.99792302  0.85417276     0.18700
H1011       H  0.51730791  0.94697222  0.83862997     0.15000
H1012       H  0.58967454  0.99535665  0.95398727     0.14900
H1013       H  0.54586542  0.90228380  0.90781018     0.33000
H1014       H  0.56059487  0.04029015  0.88507659     0.35800
C1015       C  0.50037507  0.73528619  0.56798165     0.21400
C1016       C  0.47229074  0.72944977  0.56582268    -0.38500
C1017       C  0.46556290  0.70209875  0.56208330     0.20400
C1018       C  0.48538226  0.68214772  0.56074513     0.23000
C1019       C  0.51341470  0.68800078  0.56260926    -0.39000
C1020       C  0.52013716  0.71532786  0.56610091     0.21800
N1021       N  0.51207290  0.75986146  0.56861478    -0.32300
C1022       C  0.53940858  0.75562860  0.56643692    -0.09800
C1023       C  0.54523446  0.72804820  0.56502741    -0.28600
N1024       N  0.47406658  0.65817362  0.55473160    -0.45200
C1025       C  0.44687400  0.66278509  0.55184915    -0.04500
C1026       C  0.44068254  0.68994869  0.55653261    -0.21900
H1027       H  0.45690252  0.74519500  0.56578253     0.19900
H1028       H  0.52890199  0.67255146  0.56013860     0.18700
H1029       H  0.56491669  0.71869988  0.56140812     0.15000
H1030       H  0.42100405  0.69977126  0.55436877     0.14900
H1031       H  0.50194392  0.77845621  0.56799717     0.33000
H1032       H  0.48443574  0.64004403  0.55125212     0.35800
C1033       C  0.71176948  0.80292049  0.48984949     0.21400
C1034       C  0.73018363  0.80521830  0.46797154    -0.38500
C1035       C  0.75805599  0.80625197  0.47497375     0.20400
C1036       C  0.76687804  0.80491380  0.50176238     0.23000
C1037       C  0.74847746  0.80262846  0.52365432    -0.39000
C1038       C  0.72057080  0.80179742  0.51665976     0.21800
N1039       N  0.68427953  0.80369636  0.48861765    -0.32300
C1040       C  0.67533425  0.80349177  0.51478384    -0.09800
C1041       C  0.69743814  0.80200777  0.53290019    -0.28600
N1042       N  0.79426741  0.80714392  0.50312953    -0.45200
C1043       C  0.80306523  0.80991289  0.47706429    -0.04500
C1044       C  0.78102542  0.80952971  0.45887879    -0.21900
H1045       H  0.72325513  0.80682385  0.44705988     0.19900
H1046       H  0.75536076  0.80229683  0.54464002     0.18700
H1047       H  0.69674624  0.80259517  0.55494069     0.15000
H1048       H  0.78167678  0.81180221  0.43694619     0.14900
H1049       H  0.67234960  0.80570080  0.47104319     0.33000
H1050       H  0.80625117  0.80714831  0.52078707     0.35800
C1051       C  0.42735354  0.97237051  0.71787371     0.21400
C1052       C  0.42741061  0.94460233  0.72382162    -0.38500
C1053       C  0.42807386  0.93778385  0.75158029     0.20400
C1054       C  0.42841832  0.95717695  0.77189333     0.23000
C1055       C  0.42872191  0.98500033  0.76591861    -0.39000
C1056       C  0.42829351  0.99182821  0.73811372     0.21800
N1057       N  0.42899814  0.98385932  0.69313782    -0.32300
C1058       C  0.43152486  0.01079470  0.69753437    -0.09800
C1059       C  0.43100534  0.01661798  0.72536333    -0.28600
N1060       N  0.43072431  0.94546348  0.79656477    -0.45200
C1061       C  0.43223360  0.91843817  0.79194871    -0.04500
C1062       C  0.43060005  0.91289546  0.76410049    -0.21900
H1063       H  0.42790094  0.92941381  0.70795954     0.19900
H1064       H  0.43018875  0.00017930  0.78173052     0.18700
H1065       H  0.43387954  0.03609568  0.73497780     0.15000
H1066       H  0.43245452  0.89340789  0.75426336     0.14900
H1067       H  0.43013494  0.97380938  0.67444251     0.33000
H1068       H  0.43272865  0.95532637  0.81527148     0.35800
C1069       C  0.51121274  0.23430029  0.64176448     0.21400
C1070       C  0.52029769  0.20814637  0.63517507    -0.38500
C1071       C  0.50157091  0.18711418  0.63980696     0.20400
C1072       C  0.47568060  0.19166526  0.65017698     0.23000
C1073       C  0.46650132  0.21788241  0.65660309    -0.39000
C1074       C  0.48526508  0.23897061  0.65194911     0.21800
N1075       N  0.52485004  0.25773823  0.63844876    -0.32300
C1076       C  0.50740433  0.27761501  0.64628272    -0.09800
C1077       C  0.48253584  0.26663879  0.65491032    -0.28600
N1078       N  0.46173638  0.16822818  0.65233130    -0.45200
C1079       C  0.47893642  0.14863638  0.64326740    -0.04500
C1080       C  0.50390663  0.15971223  0.63525240    -0.21900
H1081       H  0.54041501  0.20445105  0.62680474     0.19900
H1082       H  0.44614997  0.22163389  0.66436553     0.18700
H1083       H  0.46460981  0.27751280  0.66175604     0.15000
H1084       H  0.52134700  0.14912767  0.62687447     0.14900
H1085       H  0.54447295  0.26013162  0.63045231     0.33000
H1086       H  0.44169448  0.16575253  0.65921880     0.35800
C1087       C  0.55080527  0.97085106  0.62142823     0.21400
C1088       C  0.55817873  0.94425506  0.62850837    -0.38500
C1089       C  0.57231214  0.92953064  0.60849209     0.20400
C1090       C  0.57913054  0.94075130  0.58355623     0.23000
C1091       C  0.57182114  0.96731763  0.57652538    -0.39000
C1092       C  0.55714510  0.98177629  0.59624497     0.21800
N1093       N  0.53384172  0.98736919  0.63514542    -0.32300
C1094       C  0.52881528  0.00861666  0.61834464    -0.09800
C1095       C  0.54322078  0.00595817  0.59399794    -0.28600
N1096       N  0.58874133  0.92169534  0.56660180    -0.45200
C1097       C  0.58731919  0.89797078  0.58038030    -0.04500
C1098       C  0.57771380  0.90211582  0.60684018    -0.21900
H1099       H  0.55152887  0.93503043  0.64736915     0.19900
H1100       H  0.57540927  0.97538999  0.55633723     0.18700
H1101       H  0.54186264  0.01881565  0.57618362     0.15000
H1102       H  0.57258673  0.88682186  0.62175454     0.14900
H1103       H  0.52436186  0.98329359  0.65375402     0.33000
H1104       H  0.59334757  0.92426443  0.54598480     0.35800
C1105       C  0.25890521  0.88264458  0.48387714     0.21400
C1106       C  0.25381260  0.87710679  0.51163003    -0.38500
C1107       C  0.22685540  0.88174424  0.52057192     0.20400
C1108       C  0.20665042  0.89064120  0.50289357     0.23000
C1109       C  0.21182606  0.89660265  0.47547955    -0.39000
C1110       C  0.23868054  0.89241470  0.46671283     0.21800
N1111       N  0.28321606  0.88261187  0.47102236    -0.32300
C1112       C  0.27847409  0.89296865  0.44577221    -0.09800
C1113       C  0.25086346  0.89917840  0.44235171    -0.28600
N1114       N  0.18337684  0.89547845  0.51629657    -0.45200
C1115       C  0.18859620  0.89048048  0.54293040    -0.04500
C1116       C  0.21557452  0.88163841  0.54654905    -0.21900
H1117       H  0.26991856  0.87090909  0.52547131     0.19900
H1118       H  0.19629487  0.90512015  0.46224464     0.18700
H1119       H  0.24134847  0.90916751  0.42512250     0.15000
H1120       H  0.22595186  0.87741847  0.56559968     0.14900
H1121       H  0.30219989  0.87786479  0.47960716     0.33000
H1122       H  0.16553405  0.90377951  0.50803352     0.35800
C1123       C  0.33517452  0.94075032  0.26613237     0.21400
C1124       C  0.33931151  0.93094202  0.23959293    -0.38500
C1125       C  0.33482494  0.94950825  0.21837630     0.20400
C1126       C  0.32700326  0.97597696  0.22312101     0.23000
C1127       C  0.32286835  0.98583245  0.24973238    -0.39000
C1128       C  0.32725505  0.96716731  0.27102032     0.21800
N1129       N  0.33874126  0.92722191  0.28971523    -0.32300
C1130       C  0.33309972  0.94506765  0.30992920    -0.09800
C1131       C  0.32587947  0.97024020  0.29902847    -0.28600
N1132       N  0.32579064  0.98994129  0.19950744    -0.45200
C1133       C  0.33295174  0.97218575  0.17964808    -0.04500
C1134       C  0.33847949  0.94674976  0.19066952    -0.21900
H1135       H  0.34600212  0.91043787  0.23574947     0.19900
H1136       H  0.31715517  0.00661547  0.25361071     0.18700
H1137       H  0.32075091  0.98844637  0.31012017     0.15000
H1138       H  0.34564334  0.92898097  0.17997751     0.14900
H1139       H  0.34512924  0.90718845  0.29193609     0.33000
H1140       H  0.32141384  0.01048561  0.19716449     0.35800
C1141       C  0.37722691  0.02250922  0.47951513     0.21400
C1142       C  0.39835488  0.03850483  0.49002364    -0.38500
C1143       C  0.39686951  0.04432099  0.51788472     0.20400
C1144       C  0.37595370  0.03491315  0.53430421     0.23000
C1145       C  0.35454633  0.01903590  0.52370764    -0.39000
C1146       C  0.35598542  0.01326387  0.49564462     0.21800
N1147       N  0.37639245  0.01106929  0.45472263    -0.32300
C1148       C  0.35463673  0.99419414  0.45495912    -0.09800
C1149       C  0.34099597  0.99542147  0.47993898    -0.28600
N1150       N  0.38133502  0.04036370  0.56071430    -0.45200
C1151       C  0.40594754  0.05307188  0.56089623    -0.04500
C1152       C  0.41598782  0.05616204  0.53455696    -0.21900
H1153       H  0.41565551  0.04456314  0.47773778     0.19900
H1154       H  0.33887796  0.01046079  0.53662643     0.18700
H1155       H  0.32424411  0.98280020  0.48665951     0.15000
H1156       H  0.43577526  0.06395336  0.52861016     0.14900
H1157       H  0.39106280  0.01290837  0.43939811     0.33000
H1158       H  0.37007594  0.03401416  0.57760557     0.35800
C1159       C  0.45256984  0.85655216  0.42411276     0.21400
C1160       C  0.46452109  0.83436141  0.43765414    -0.38500
C1161       C  0.49128748  0.83829874  0.44751381     0.20400
C1162       C  0.50515794  0.86239557  0.44376303     0.23000
C1163       C  0.49339918  0.88435682  0.42994513    -0.39000
C1164       C  0.46658324  0.88059241  0.42051648     0.21800
N1165       N  0.42614297  0.85946426  0.41674934    -0.32300
C1166       C  0.42324889  0.88566923  0.40901751    -0.09800
C1167       C  0.44816155  0.89929026  0.41063347    -0.28600
N1168       N  0.52882383  0.86241070  0.45774285    -0.45200
C1169       C  0.53014623  0.83827272  0.47071137    -0.04500
C1170       C  0.50719986  0.82250152  0.46463333    -0.21900
H1171       H  0.45315486  0.81606912  0.44184106     0.19900
H1172       H  0.50368713  0.90365461  0.42836408     0.18700
H1173       H  0.45175390  0.92063558  0.40738222     0.15000
H1174       H  0.50192283  0.80302610  0.47318928     0.14900
H1175       H  0.41058920  0.84519494  0.41903066     0.33000
H1176       H  0.54247451  0.87852864  0.45966245     0.35800
loop_ 
_geom_bond_atom_site_label_1 
_geom_bond_atom_site_label_2 
_geom_bond_distance 
_geom_bond_site_symmetry_2 
_ccdc_geom_bond_type 
O1            C4   1.267       .  A
O1           Cd6   2.483       .  S
C2           O11   1.265       .  A
C2            O7   1.267       .  A
C2         C1166   1.478       .  S
O3            C9   1.264       .  A
O3           Cd6   2.507       .  S
C4           O12   1.265       .  A
C4         C1112   1.477       .  S
C5           O10   1.265       .  A
C5            O8   1.261       .  A
C5         C1148   1.471       .  S
Cd6          O13   2.519       .  S
Cd6          O12   2.488       .  S
Cd6          O11   2.465       .  S
Cd6           O7   2.511       .  S
Cd6          O10   2.481       .  S
Cd6           O8   2.481       .  S
C9           O13   1.265       .  A
C9         C1130   1.484       .  S
O14          C17   1.265       .  A
O14         Cd19   2.517       .  S
C15          O24   1.264       .  A
C15          O20   1.270       .  A
C15        C1058   1.472       .  S
O16          C22   1.265       .  A
O16         Cd19   2.489       .  S
C17          O25   1.262       .  A
C17        C1151   1.473       .  S
C18          O23   1.263       .  A
C18          O21   1.267       .  A
C18        C1079   1.481       .  S
Cd19         O26   2.485       .  S
Cd19         O25   2.440       .  S
Cd19         O24   2.432       .  S
Cd19         O20   2.492       .  S
Cd19         O23   2.468       .  S
Cd19         O21   2.529       .  S
C22          O26   1.263       .  A
C22        C1094   1.475       .  S
O27          C30   1.268       .  A
O27         Cd32   2.516       .  S
C28          O37   1.267       .  A
C28          O33   1.266       .  A
C28        C1022   1.474       .  S
O29          C35   1.263       .  A
O29         Cd32   2.487       .  S
C30          O38   1.263       .  A
C30        C1097   1.477       .  S
C31          O36   1.265       .  A
C31          O34   1.267       .  A
C31        C1040   1.484       .  S
Cd32         O39   2.502       .  S
Cd32         O38   2.456       .  S
Cd32         O37   2.480       .  S
Cd32         O33   2.470       .  S
Cd32         O36   2.489       .  S
Cd32         O34   2.521       .  S
C35          O39   1.261       .  A
C35        C1169   1.476       .  S
O40          C43   1.267       .  A
O40         Cd45   2.532       .  S
C41          O50   1.271       .  A
C41          O46   1.260       .  A
C41         C950   1.481       .  S
O42          C48   1.266       .  A
O42         Cd45   2.424   1_554  S
C43          O51   1.261       .  A
C43        C1007   1.479       .  S
C44          O49   1.263   1_556  A
C44          O47   1.266       .  A
C44         C968   1.480       .  S
Cd45         O52   2.473   1_556  S
Cd45         O51   2.466       .  S
Cd45         O50   2.568       .  S
Cd45         O46   2.424       .  S
Cd45         O49   2.504   1_556  S
Cd45         O47   2.493       .  S
C48          O52   1.265       .  A
C48         C986   1.465       .  S
O53          C56   1.268       .  A
O53         Cd58   2.474   1_545  S
C54          O63   1.261   1_545  A
C54          O59   1.266       .  A
C54         C989   1.469       .  S
O55          C61   1.265   1_545  A
O55         Cd58   2.515   1_545  S
C56          O64   1.264       .  A
C56         C914   1.472       .  S
C57          O62   1.265       .  A
C57          O60   1.265       .  A
C57         C932   1.473       .  S
Cd58         O65   2.471       .  S
Cd58         O64   2.468   1_565  S
Cd58         O63   2.417       .  S
Cd58         O59   2.519   1_565  S
Cd58         O62   2.463       .  S
Cd58         O60   2.487       .  S
C61          O65   1.264       .  A
C61        C1133   1.479       .  S
O66          C69   1.267       .  A
O66         Cd71   2.504       .  S
C67          O76   1.268       .  A
C67          O72   1.265       .  A
C67        C1061   1.479       .  S
O68          C74   1.266       .  A
O68         Cd71   2.493       .  S
C69          O77   1.262       .  A
C69         C935   1.473       .  S
C70          O75   1.266       .  A
C70          O73   1.265       .  A
C70         C896   1.480       .  S
Cd71         O78   2.446       .  S
Cd71         O77   2.451       .  S
Cd71         O76   2.495       .  S
Cd71         O72   2.482       .  S
Cd71         O75   2.507       .  S
Cd71         O73   2.482       .  S
C74          O78   1.262       .  A
C74        C1004   1.471       .  S
O79          C82   1.267       .  A
O79         Cd84   2.514       .  S
C80          O89   1.267       .  A
C80          O85   1.264       .  A
C80         C842   1.480       .  S
O81          C87   1.264       .  A
O81         Cd84   2.483   1_556  S
C82          O90   1.260       .  A
C82         C878   1.470       .  S
C83          O88   1.265       .  A
C83          O86   1.265       .  A
C83         C971   1.481       .  S
Cd84         O91   2.472   1_554  S
Cd84         O90   2.432       .  S
Cd84         O89   2.500       .  S
Cd84         O85   2.488       .  S
Cd84         O88   2.487       .  S
Cd84         O86   2.513       .  S
C87          O91   1.264       .  A
C87         C860   1.473       .  S
O92          C95   1.267       .  A
O92         Cd97   2.511       .  S
C93         O102   1.263       .  A
C93          O98   1.268       .  A
C93         C827   1.466       .  S
O94         C100   1.264   1_655  A
O94         Cd97   2.477   1_655  S
C95         O103   1.263       .  A
C95         C791   1.481       .  S
C96         O101   1.262       .  A
C96          O99   1.265       .  A
C96         C881   1.467       .  S
Cd97        O104   2.506       .  S
Cd97        O103   2.494       .  S
Cd97        O102   2.437       .  S
Cd97         O98   2.469       .  S
Cd97        O101   2.445   1_455  S
Cd97         O99   2.481   1_455  S
C100        O104   1.266       .  A
C100        C806   1.480   1_455  S
O105        C108   1.266       .  A
O105       Cd110   2.509   1_545  S
C106        O115   1.267   1_545  A
C106        O111   1.265       .  A
C106        C917   1.474       .  S
O107        C113   1.263       .  A
O107       Cd110   2.479       .  S
C108        O116   1.263   1_545  A
C108        C863   1.474       .  S
C109        O114   1.265       .  A
C109        O112   1.265       .  A
C109        C770   1.476       .  S
Cd110       O117   2.472       .  S
Cd110       O116   2.450       .  S
Cd110       O115   2.491       .  S
Cd110       O111   2.456   1_565  S
Cd110       O114   2.483       .  S
Cd110       O112   2.486       .  S
C113        O117   1.262       .  A
C113        C824   1.469       .  S
O118        C121   1.268       .  A
O118       Cd123   2.518       .  S
C119        O128   1.269       .  A
C119        O124   1.264       .  A
C119        C719   1.475       .  S
O120        C126   1.263       .  A
O120       Cd123   2.452       .  S
C121        O129   1.261       .  A
C121        C755   1.475       .  S
C122        O127   1.264       .  A
C122        O125   1.267       .  A
C122        C809   1.483       .  S
Cd123       O130   2.484       .  S
Cd123       O129   2.440       .  S
Cd123       O128   2.491       .  S
Cd123       O124   2.472       .  S
Cd123       O127   2.471       .  S
Cd123       O125   2.534       .  S
C126        O130   1.263       .  A
C126        C737   1.468   1_655  S
O131        C134   1.266       .  A
O131       Cd136   2.488       .  S
C132        O141   1.262       .  A
C132        O137   1.268       .  A
C132        C845   1.474       .  S
O133        C139   1.264       .  A
O133       Cd136   2.475   1_556  S
C134        O142   1.264       .  A
C134        C734   1.470       .  S
C135        O140   1.264       .  A
C135        O138   1.264       .  A
C135        C683   1.471       .  S
Cd136       O143   2.463   1_554  S
Cd136       O142   2.447       .  S
Cd136       O141   2.437       .  S
Cd136       O137   2.507       .  S
Cd136       O140   2.490       .  S
Cd136       O138   2.463       .  S
C139        O143   1.263       .  A
C139        C698   1.470       .  S
O144        C147   1.264       .  A
O144       Cd149   2.448       .  S
C145        O154   1.263       .  A
C145        O150   1.266       .  A
C145        C701   1.475       .  S
O146        C152   1.265       .  A
O146       Cd149   2.491       .  S
C147        O155   1.267       .  A
C147        C644   1.470       .  S
C148        O153   1.264       .  A
C148        O151   1.264       .  A
C148        C752   1.474       .  S
Cd149       O156   2.504       .  S
Cd149       O155   2.482       .  S
Cd149       O154   2.455       .  S
Cd149       O150   2.512       .  S
Cd149       O153   2.465       .  S
Cd149       O151   2.502       .  S
C152        O156   1.265       .  A
C152        C662   1.480       .  S
O157        C160   1.265       .  A
O157       Cd162   2.488       .  S
C158        O167   1.269       .  A
C158        O163   1.267       .  A
C158        C953   1.475       .  S
O159        C165   1.264       .  A
O159       Cd162   2.532   1_554  S
C160        O168   1.261       .  A
C160        C629   1.469       .  S
C161        O166   1.265   1_556  A
C161        O164   1.264       .  A
C161        C680   1.470   1_556  S
Cd162       O169   2.457   1_556  S
Cd162       O168   2.449       .  S
Cd162       O167   2.474       .  S
Cd162       O163   2.465       .  S
Cd162       O166   2.459   1_556  S
Cd162       O164   2.483       .  S
C165        O169   1.260       .  A
C165        C608   1.475       .  S
O170        C173   1.267       .  A
O170       Cd175   2.517       .  S
C171        O180   1.263       .  A
C171        O176   1.268       .  A
C171        C647   1.470       .  S
O172        C178   1.264       .  A
O172       Cd175   2.464       .  S
C173        O181   1.262       .  A
C173        C611   1.478       .  S
C174        O179   1.266       .  A
C174        O177   1.266       .  A
C174        C572   1.483       .  S
Cd175       O182   2.492       .  S
Cd175       O181   2.471       .  S
Cd175       O180   2.446       .  S
Cd175       O176   2.489       .  S
Cd175       O179   2.499       .  S
Cd175       O177   2.500       .  S
C178        O182   1.262       .  A
C178        C590   1.472       .  S
O183        C186   1.264       .  A
O183       Cd188   2.498       .  S
C184        O193   1.268       .  A
C184        O189   1.265       .  A
C184        C554   1.485       .  S
O185        C191   1.266       .  A
O185       Cd188   2.510       .  S
C186        O194   1.262       .  A
C186        C593   1.471       .  S
C187        O192   1.265       .  A
C187        O190   1.262       .  A
C187        C899   1.478       .  S
Cd188       O195   2.460       .  S
Cd188       O194   2.461       .  S
Cd188       O193   2.523       .  S
Cd188       O189   2.488       .  S
Cd188       O192   2.514       .  S
Cd188       O190   2.475       .  S
C191        O195   1.265       .  A
C191        C626   1.473       .  S
O196        C199   1.267       .  A
O196       Cd201   2.517       .  S
C197        O206   1.265       .  A
C197        O202   1.269       .  A
C197        C557   1.483       .  S
O198        C204   1.265       .  A
O198       Cd201   2.504       .  S
C199        O207   1.263       .  A
C199        C536   1.477       .  S
C200        O205   1.264       .  A
C200        O203   1.267       .  A
C200       C1076   1.484       .  S
Cd201       O208   2.443       .  S
Cd201       O207   2.458       .  S
Cd201       O206   2.482       .  S
Cd201       O202   2.508       .  S
Cd201       O205   2.494       .  S
Cd201       O203   2.524       .  S
C204        O208   1.260       .  A
C204        C518   1.470       .  S
O209        C212   1.265       .  A
O209       Cd214   2.497       .  S
C210        O219   1.268       .  A
C210        O215   1.262       .  A
C210       C1025   1.474       .  S
O211        C217   1.264       .  A
O211       Cd214   2.439       .  S
C212        O220   1.263       .  A
C212        C521   1.476       .  S
C213        O218   1.265       .  A
C213        O216   1.265       .  A
C213        C482   1.481       .  S
Cd214       O221   2.486       .  S
Cd214       O220   2.482       .  S
Cd214       O219   2.514       .  S
Cd214       O215   2.443       .  S
Cd214       O218   2.510       .  S
Cd214       O216   2.492       .  S
C217        O221   1.265       .  A
C217        C500   1.469       .  S
O222        C225   1.265       .  A
O222       Cd227   2.498       .  S
C223        O232   1.269       .  A
C223        O228   1.264       .  A
C223        C464   1.475       .  S
O224        C230   1.266       .  A
O224       Cd227   2.512       .  S
C225        O233   1.262       .  A
C225        C503   1.469       .  S
C226        O231   1.267       .  A
C226        O229   1.265       .  A
C226        C575   1.485       .  S
Cd227       O234   2.452       .  S
Cd227       O233   2.439       .  S
Cd227       O232   2.501       .  S
Cd227       O228   2.457       .  S
Cd227       O231   2.509       .  S
Cd227       O229   2.504       .  S
C230        O234   1.262       .  A
C230        C539   1.475       .  S
O235        C238   1.265       .  A
O235       Cd240   2.492       .  S
C236        O245   1.263       .  A
C236        O241   1.269       .  A
C236        C716   1.474       .  S
O237        C243   1.265       .  A
O237       Cd240   2.480   1_455  S
C238        O246   1.262       .  A
C238        C449   1.474       .  S
C239        O244   1.264   1_655  A
C239        O242   1.265       .  A
C239        C413   1.474       .  S
Cd240       O247   2.460   1_655  S
Cd240       O246   2.475       .  S
Cd240       O245   2.422       .  S
Cd240       O241   2.524       .  S
Cd240       O244   2.474   1_655  S
Cd240       O242   2.489       .  S
C243        O247   1.263       .  A
C243        C431   1.471       .  S
O248        C251   1.268       .  A
O248       Cd253   2.541       .  S
C249        O258   1.262       .  A
C249        O254   1.266       .  A
C249        C428   1.480       .  S
O250        C256   1.265       .  A
O250       Cd253   2.495       .  S
C251        O259   1.265       .  A
C251        C377   1.484       .  S
C252        O257   1.262       .  A
C252        O255   1.262       .  A
C252        C395   1.471       .  S
Cd253       O260   2.475       .  S
Cd253       O259   2.467       .  S
Cd253       O258   2.494       .  S
Cd253       O254   2.514       .  S
Cd253       O257   2.492       .  S
Cd253       O255   2.472       .  S
C256        O260   1.266       .  A
C256        C485   1.478       .  S
O261        C264   1.264       .  A
O261       Cd266   2.500       .  S
C262        O271   1.268       .  A
C262        O267   1.264       .  A
C262        C467   1.473       .  S
O263        C269   1.265       .  A
O263       Cd266   2.499       .  S
C264        O272   1.263       .  A
C264        C392   1.474       .  S
C265        O270   1.264       .  A
C265        O268   1.265       .  A
C265        C665   1.483       .  S
Cd266       O273   2.497       .  S
Cd266       O272   2.477       .  S
Cd266       O271   2.497       .  S
Cd266       O267   2.453       .  S
Cd266       O270   2.498       .  S
Cd266       O268   2.514       .  S
C269        O273   1.263       .  A
C269        C446   1.478       .  S
O274        C277   1.261       .  A
O274       Cd279   2.405       .  S
C275        O284   1.262       .  A
C275        O280   1.267       .  A
C275        C356   1.476       .  S
O276        C282   1.264       .  A
O276       Cd279   2.470       .  S
C277        O285   1.268       .  A
C277       C1115   1.472       .  S
C278        O283   1.265       .  A
C278        O281   1.266       .  A
C278        C338   1.479       .  S
Cd279       O286   2.522       .  S
Cd279       O285   2.537       .  S
Cd279       O284   2.443       .  S
Cd279       O280   2.528       .  S
Cd279       O283   2.469       .  S
Cd279       O281   2.515       .  S
C282        O286   1.265       .  A
C282        C773   1.479       .  S
O287        C290   1.268       .  A
O287       Cd292   2.505       .  S
C288        O297   1.267       .  A
C288        O293   1.266       .  A
C288        C788   1.482       .  S
O289        C295   1.263       .  A
O289       Cd292   2.488   1_655  S
C290        O298   1.264       .  A
C290        C341   1.478       .  S
C291        O296   1.264       .  A
C291        O294   1.265       .  A
C291        C410   1.477       .  S
Cd292       O299   2.469   1_455  S
Cd292       O298   2.462       .  S
Cd292       O297   2.493       .  S
Cd292       O293   2.495       .  S
Cd292       O296   2.495       .  S
Cd292       O294   2.491       .  S
C295        O299   1.261       .  A
C295        C320   1.469       .  S
O300        C303   1.269       .  A
O300       Cd305   2.504       .  S
C301        O310   1.267       .  A
C301        O306   1.266       .  A
C301        C374   1.483       .  S
O302        C308   1.261       .  A
O302       Cd305   2.448       .  S
C303        O311   1.261       .  A
C303        C323   1.470       .  S
C304        O309   1.263       .  A
C304        O307   1.266       .  A
C304       C1043   1.479       .  S
Cd305       O312   2.496       .  S
Cd305       O311   2.430       .  S
Cd305       O310   2.500       .  S
Cd305       O306   2.502       .  S
Cd305       O309   2.469       .  S
Cd305       O307   2.514       .  S
C308        O312   1.264       .  A
C308        C359   1.470       .  S
C313        C318   1.385       .  A
C313        C314   1.403       .  A
C313        N319   1.344   1_565  A
C314        C315   1.403       .  A
C314        H325   1.083       .  S
C315        C324   1.376       .  A
C315        C316   1.386       .  A
C316        C317   1.402       .  A
C316        N322   1.345       .  A
C317        C318   1.402       .  A
C317        H326   1.082       .  S
C318        C321   1.376       .  A
N319        C320   1.355       .  A
N319        H329   1.045       .  S
C320        C321   1.394   1_545  A
C321        H327   1.083       .  S
N322        C323   1.354       .  A
N322        H330   1.044       .  S
C323        C324   1.396       .  A
C324        H328   1.083       .  S
C331        C336   1.384       .  A
C331        C332   1.410       .  A
C331        N337   1.349   1_545  A
C332        C333   1.409       .  A
C332        H343   1.082       .  S
C333        C342   1.385       .  A
C333        C334   1.384       .  A
C334        C335   1.403       .  A
C334        N340   1.343       .  A
C335        C336   1.402       .  A
C335        H344   1.082       .  S
C336        C339   1.378       .  A
N337        C338   1.359       .  A
N337        H347   1.045       .  S
C338        C339   1.394   1_565  A
C339        H345   1.082       .  S
N340        C341   1.355       .  A
N340        H348   1.045       .  S
C341        C342   1.398       .  A
C342        H346   1.082       .  S
C349        C354   1.385       .  A
C349        C350   1.408       .  A
C349        N355   1.349       .  A
C350        C351   1.408   1_455  A
C350        H361   1.082       .  S
C351        C360   1.383       .  A
C351        C352   1.386       .  A
C352        C353   1.399       .  A
C352        N358   1.341       .  A
C353        C354   1.399   1_655  A
C353        H362   1.083       .  S
C354        C357   1.373       .  A
N355        C356   1.358       .  A
N355        H365   1.044       .  S
C356        C357   1.393       .  A
C357        H363   1.083       .  S
N358        C359   1.353       .  A
N358        H366   1.045       .  S
C359        C360   1.397       .  A
C360        H364   1.082       .  S
C367        C372   1.383       .  A
C367        C368   1.412   1_655  A
C367        N373   1.349       .  A
C368        C369   1.411       .  A
C368        H379   1.082       .  S
C369        C378   1.391       .  A
C369        C370   1.383   1_455  A
C370        C371   1.405       .  A
C370        N376   1.343   1_655  A
C371        C372   1.403       .  A
C371        H380   1.082       .  S
C372        C375   1.383       .  A
N373        C374   1.359       .  A
N373        H383   1.044       .  S
C374        C375   1.397       .  A
C375        H381   1.082       .  S
N376        C377   1.356       .  A
N376        H384   1.045       .  S
C377        C378   1.402       .  A
C378        H382   1.082       .  S
C385        C390   1.385       .  A
C385        C386   1.405       .  A
C385        N391   1.346       .  A
C386        C387   1.404       .  A
C386        H397   1.082       .  S
C387        C396   1.378   1_655  A
C387        C388   1.385   1_655  A
C388        C389   1.403       .  A
C388        N394   1.345       .  A
C389        C390   1.403   1_455  A
C389        H398   1.082       .  S
C390        C393   1.378       .  A
N391        C392   1.356       .  A
N391        H401   1.045       .  S
C392        C393   1.395       .  A
C393        H399   1.082       .  S
N394        C395   1.355       .  A
N394        H402   1.045       .  S
C395        C396   1.395       .  A
C396        H400   1.083       .  S
C403        C408   1.384   1_455  A
C403        C404   1.404       .  A
C403        N409   1.345       .  A
C404        C405   1.403       .  A
C404        H415   1.082       .  S
C405        C414   1.379       .  A
C405        C406   1.384   1_455  A
C406        C407   1.406       .  A
C406        N412   1.346       .  A
C407        C408   1.406       .  A
C407        H416   1.082       .  S
C408        C411   1.382       .  A
N409        C410   1.356       .  A
N409        H419   1.044       .  S
C410        C411   1.397   1_455  A
C411        H417   1.082       .  S
N412        C413   1.357       .  A
N412        H420   1.044       .  S
C413        C414   1.395   1_655  A
C414        H418   1.082       .  S
C421        C426   1.384       .  A
C421        C422   1.407       .  A
C421        N427   1.346       .  A
C422        C423   1.405       .  A
C422        H433   1.082       .  S
C423        C432   1.382       .  A
C423        C424   1.384       .  A
C424        C425   1.404       .  A
C424        N430   1.343       .  A
C425        C426   1.403       .  A
C425        H434   1.082       .  S
C426        C429   1.381       .  A
N427        C428   1.358       .  A
N427        H437   1.045       .  S
C428        C429   1.395       .  A
C429        H435   1.082       .  S
N430        C431   1.355       .  A
N430        H438   1.044       .  S
C431        C432   1.396       .  A
C432        H436   1.082       .  S
C439        C444   1.385       .  A
C439        C440   1.406       .  A
C439        N445   1.345       .  A
C440        C441   1.404       .  A
C440        H451   1.082       .  S
C441        C450   1.381       .  A
C441        C442   1.384       .  A
C442        C443   1.405       .  A
C442        N448   1.345       .  A
C443        C444   1.405       .  A
C443        H452   1.082       .  S
C444        C447   1.381       .  A
N445        C446   1.356       .  A
N445        H455   1.045       .  S
C446        C447   1.397       .  A
C447        H453   1.082       .  S
N448        C449   1.355       .  A
N448        H456   1.044       .  S
C449        C450   1.397       .  A
C450        H454   1.083       .  S
C457        C462   1.385       .  A
C457        C458   1.403       .  A
C457        N463   1.346       .  A
C458        C459   1.403       .  A
C458        H469   1.082       .  S
C459        C468   1.377       .  A
C459        C460   1.385       .  A
C460        C461   1.405       .  A
C460        N466   1.347       .  A
C461        C462   1.405       .  A
C461        H470   1.082       .  S
C462        C465   1.379       .  A
N463        C464   1.355       .  A
N463        H473   1.044       .  S
C464        C465   1.397       .  A
C465        H471   1.083       .  S
N466        C467   1.356       .  A
N466        H474   1.045       .  S
C467        C468   1.395       .  A
C468        H472   1.083       .  S
C475        C480   1.384       .  A
C475        C476   1.408       .  A
C475        N481   1.346       .  A
C476        C477   1.407       .  A
C476        H487   1.082       .  S
C477        C486   1.384       .  A
C477        C478   1.384       .  A
C478        C479   1.406       .  A
C478        N484   1.344       .  A
C479        C480   1.405       .  A
C479        H488   1.082       .  S
C480        C483   1.383       .  A
N481        C482   1.357       .  A
N481        H491   1.044       .  S
C482        C483   1.398       .  A
C483        H489   1.082       .  S
N484        C485   1.356       .  A
N484        H492   1.044       .  S
C485        C486   1.399       .  A
C486        H490   1.082       .  S
C493        C498   1.386       .  A
C493        C494   1.400       .  A
C493        N499   1.340       .  A
C494        C495   1.398       .  A
C494        H505   1.083       .  S
C495        C504   1.373       .  A
C495        C496   1.385       .  A
C496        C497   1.405       .  A
C496        N502   1.346       .  A
C497        C498   1.405       .  A
C497        H506   1.082       .  S
C498        C501   1.381       .  A
N499        C500   1.353       .  A
N499        H509   1.045       .  S
C500        C501   1.397       .  A
C501        H507   1.082       .  S
N502        C503   1.356       .  A
N502        H510   1.045       .  S
C503        C504   1.392       .  A
C504        H508   1.083       .  S
C511        C516   1.385       .  A
C511        C512   1.406       .  A
C511        N517   1.347       .  A
C512        C513   1.406       .  A
C512        H523   1.082       .  S
C513        C522   1.381       .  A
C513        C514   1.384       .  A
C514        C515   1.402       .  A
C514        N520   1.345       .  A
C515        C516   1.402       .  A
C515        H524   1.082       .  S
C516        C519   1.375       .  A
N517        C518   1.356       .  A
N517        H527   1.045       .  S
C518        C519   1.394       .  A
C519        H525   1.083       .  S
N520        C521   1.355       .  A
N520        H528   1.044       .  S
C521        C522   1.398       .  A
C522        H526   1.082       .  S
C529        C534   1.384       .  A
C529        C530   1.405       .  A
C529        N535   1.348       .  A
C530        C531   1.406       .  A
C530        H541   1.082       .  S
C531        C540   1.377       .  A
C531        C532   1.385       .  A
C532        C533   1.404       .  A
C532        N538   1.347       .  A
C533        C534   1.404       .  A
C533        H542   1.082       .  S
C534        C537   1.377       .  A
N535        C536   1.357       .  A
N535        H545   1.045       .  S
C536        C537   1.395       .  A
C537        H543   1.082       .  S
N538        C539   1.356       .  A
N538        H546   1.045       .  S
C539        C540   1.396       .  A
C540        H544   1.083       .  S
C547        C552   1.384       .  A
C547        C548   1.406       .  A
C547        N553   1.346       .  A
C548        C549   1.405       .  A
C548        H559   1.082       .  S
C549        C558   1.383       .  A
C549        C550   1.383       .  A
C550        C551   1.411       .  A
C550        N556   1.348       .  A
C551        C552   1.409       .  A
C551        H560   1.082       .  S
C552        C555   1.388       .  A
N553        C554   1.357       .  A
N553        H563   1.044       .  S
C554        C555   1.400       .  A
C555        H561   1.082       .  S
N556        C557   1.360       .  A
N556        H564   1.045       .  S
C557        C558   1.396       .  A
C558        H562   1.082       .  S
C565        C570   1.384       .  A
C565        C566   1.408       .  A
C565        N571   1.348       .  A
C566        C567   1.408       .  A
C566        H577   1.082       .  S
C567        C576   1.385       .  A
C567        C568   1.384       .  A
C568        C569   1.408       .  A
C568        N574   1.348       .  A
C569        C570   1.407       .  A
C569        H578   1.082       .  S
C570        C573   1.383       .  A
N571        C572   1.358       .  A
N571        H581   1.045       .  S
C572        C573   1.398       .  A
C573        H579   1.082       .  S
N574        C575   1.358       .  A
N574        H582   1.044       .  S
C575        C576   1.399       .  A
C576        H580   1.082       .  S
C583        C588   1.384       .  A
C583        C584   1.408   1_554  A
C583        N589   1.347       .  A
C584        C585   1.407       .  A
C584        H595   1.082       .  S
C585        C594   1.383       .  A
C585        C586   1.386       .  A
C586        C587   1.400   1_556  A
C586        N592   1.341       .  A
C587        C588   1.398       .  A
C587        H596   1.083       .  S
C588        C591   1.374       .  A
N589        C590   1.358       .  A
N589        H599   1.045       .  S
C590        C591   1.391       .  A
C591        H597   1.083       .  S
N592        C593   1.353       .  A
N592        H600   1.045       .  S
C593        C594   1.397       .  A
C594        H598   1.082       .  S
C601        C606   1.384       .  A
C601        C602   1.404       .  A
C601        N607   1.341       .  A
C602        C603   1.402       .  A
C602        H613   1.082       .  S
C603        C612   1.382       .  A
C603        C604   1.384       .  A
C604        C605   1.409       .  A
C604        N610   1.345       .  A
C605        C606   1.407       .  A
C605        H614   1.082       .  S
C606        C609   1.387       .  A
N607        C608   1.355       .  A
N607        H617   1.045       .  S
C608        C609   1.399       .  A
C609        H615   1.082       .  S
N610        C611   1.358       .  A
N610        H618   1.045       .  S
C611        C612   1.396       .  A
C612        H616   1.082       .  S
C619        C624   1.385       .  A
C619        C620   1.406       .  A
C619        N625   1.349       .  A
C620        C621   1.405       .  A
C620        H631   1.082       .  S
C621        C630   1.377       .  A
C621        C622   1.385       .  A
C622        C623   1.401       .  A
C622        N628   1.344       .  A
C623        C624   1.402       .  A
C623        H632   1.083       .  S
C624        C627   1.374       .  A
N625        C626   1.358       .  A
N625        H635   1.045       .  S
C626        C627   1.393       .  A
C627        H633   1.083       .  S
N628        C629   1.354       .  A
N628        H636   1.045       .  S
C629        C630   1.395       .  A
C630        H634   1.082       .  S
C637        C642   1.385       .  A
C637        C638   1.404   1_556  A
C637        N643   1.342       .  A
C638        C639   1.401       .  A
C638        H649   1.082       .  S
C639        C648   1.380       .  A
C639        C640   1.384   1_554  A
C640        C641   1.404       .  A
C640        N646   1.342   1_556  A
C641        C642   1.403       .  A
C641        H650   1.082       .  S
C642        C645   1.380       .  A
N643        C644   1.355       .  A
N643        H653   1.044       .  S
C644        C645   1.395       .  A
C645        H651   1.082       .  S
N646        C647   1.356       .  A
N646        H654   1.045       .  S
C647        C648   1.394       .  A
C648        H652   1.082       .  S
C655        C660   1.384       .  A
C655        C656   1.407       .  A
C655        N661   1.348       .  A
C656        C657   1.407       .  A
C656        H667   1.082       .  S
C657        C666   1.382       .  A
C657        C658   1.384       .  A
C658        C659   1.407       .  A
C658        N664   1.348       .  A
C659        C660   1.406       .  A
C659        H668   1.082       .  S
C660        C663   1.382       .  A
N661        C662   1.357       .  A
N661        H671   1.044       .  S
C662        C663   1.397       .  A
C663        H669   1.082       .  S
N664        C665   1.358       .  A
N664        H672   1.044       .  S
C665        C666   1.398       .  A
C666        H670   1.082       .  S
C673        C678   1.385       .  A
C673        C674   1.400       .  A
C673        N679   1.341       .  A
C674        C675   1.399       .  A
C674        H685   1.082       .  S
C675        C684   1.374       .  A
C675        C676   1.384       .  A
C676        C677   1.407   1_554  A
C676        N682   1.346       .  A
C677        C678   1.407   1_556  A
C677        H686   1.082       .  S
C678        C681   1.383   1_554  A
N679        C680   1.353       .  A
N679        H689   1.045       .  S
C680        C681   1.398   1_554  A
C681        H687   1.082       .  S
N682        C683   1.358       .  A
N682        H690   1.045   1_554  S
C683        C684   1.392       .  A
C684        H688   1.082       .  S
C691        C696   1.385       .  A
C691        C692   1.406   1_455  A
C691        N697   1.344       .  A
C692        C693   1.404       .  A
C692        H703   1.082       .  S
C693        C702   1.384       .  A
C693        C694   1.384       .  A
C694        C695   1.402   1_655  A
C694        N700   1.342       .  A
C695        C696   1.401       .  A
C695        H704   1.083       .  S
C696        C699   1.378       .  A
N697        C698   1.356       .  A
N697        H707   1.045       .  S
C698        C699   1.394       .  A
C699        H705   1.083       .  S
N700        C701   1.355       .  A
N700        H708   1.045       .  S
C701        C702   1.397       .  A
C702        H706   1.082       .  S
C709        C714   1.384       .  A
C709        C710   1.401       .  A
C709        N715   1.339       .  A
C710        C711   1.399       .  A
C710        H721   1.082       .  S
C711        C720   1.379       .  A
C711        C712   1.384       .  A
C712        C713   1.411       .  A
C712        N718   1.346       .  A
C713        C714   1.408       .  A
C713        H722   1.082       .  S
C714        C717   1.388       .  A
N715        C716   1.354       .  A
N715        H725   1.045       .  S
C716        C717   1.399       .  A
C717        H723   1.082       .  S
N718        C719   1.359       .  A
N718        H726   1.044       .  S
C719        C720   1.394       .  A
C720        H724   1.082       .  S
C727        C732   1.385       .  A
C727        C728   1.401       .  A
C727        N733   1.341       .  A
C728        C729   1.400       .  A
C728        H739   1.083       .  S
C729        C738   1.375       .  A
C729        C730   1.384       .  A
C730        C731   1.406       .  A
C730        N736   1.345       .  A
C731        C732   1.405       .  A
C731        H740   1.082       .  S
C732        C735   1.381       .  A
N733        C734   1.354       .  A
N733        H743   1.046       .  S
C734        C735   1.396       .  A
C735        H741   1.082       .  S
N736        C737   1.357       .  A
N736        H744   1.045       .  S
C737        C738   1.393       .  A
C738        H742   1.083       .  S
C745        C750   1.385       .  A
C745        C746   1.402   1_556  A
C745        N751   1.342       .  A
C746        C747   1.401       .  A
C746        H757   1.083   1_554  S
C747        C756   1.376       .  A
C747        C748   1.384       .  A
C748        C749   1.407       .  A
C748        N754   1.348       .  A
C749        C750   1.408   1_554  A
C749        H758   1.082       .  S
C750        C753   1.384       .  A
N751        C752   1.354       .  A
N751        H761   1.045       .  S
C752        C753   1.399       .  A
C753        H759   1.082       .  S
N754        C755   1.357       .  A
N754        H762   1.044       .  S
C755        C756   1.395       .  A
C756        H760   1.083       .  S
C763        C768   1.384       .  A
C763        C764   1.403       .  A
C763        N769   1.345       .  A
C764        C765   1.403       .  A
C764        H775   1.082   1_565  S
C765        C774   1.376       .  A
C765        C766   1.384       .  A
C766        C767   1.408       .  A
C766        N772   1.349       .  A
C767        C768   1.408       .  A
C767        H776   1.082       .  S
C768        C771   1.382       .  A
N769        C770   1.356       .  A
N769        H779   1.045   1_565  S
C770        C771   1.397       .  A
C771        H777   1.082       .  S
N772        C773   1.359       .  A
N772        H780   1.045       .  S
C773        C774   1.394       .  A
C774        H778   1.082       .  S
C781        C786   1.384       .  A
C781        C782   1.408       .  A
C781        N787   1.348       .  A
C782        C783   1.407       .  A
C782        H793   1.082       .  S
C783        C792   1.384       .  A
C783        C784   1.384       .  A
C784        C785   1.407       .  A
C784        N790   1.347       .  A
C785        C786   1.407       .  A
C785        H794   1.082       .  S
C786        C789   1.382   1_565  A
N787        C788   1.358   1_565  A
N787        H797   1.044       .  S
C788        C789   1.397       .  A
C789        H795   1.082       .  S
N790        C791   1.358       .  A
N790        H798   1.045       .  S
C791        C792   1.396       .  A
C792        H796   1.082       .  S
C799        C804   1.384       .  A
C799        C800   1.405   1_655  A
C799        N805   1.348   1_655  A
C800        C801   1.406   1_455  A
C800        H811   1.082       .  S
C801        C810   1.379       .  A
C801        C802   1.384       .  A
C802        C803   1.408       .  A
C802        N808   1.350       .  A
C803        C804   1.408       .  A
C803        H812   1.082       .  S
C804        C807   1.382       .  A
N805        C806   1.357   1_455  A
N805        H815   1.045       .  S
C806        C807   1.397       .  A
C807        H813   1.082       .  S
N808        C809   1.359       .  A
N808        H816   1.045       .  S
C809        C810   1.397       .  A
C810        H814   1.082   1_655  S
C817        C822   1.385       .  A
C817        C818   1.403       .  A
C817        N823   1.343       .  A
C818        C819   1.402   1_556  A
C818        H829   1.083       .  S
C819        C828   1.376       .  A
C819        C820   1.385       .  A
C820        C821   1.402       .  A
C820        N826   1.343       .  A
C821        C822   1.402   1_554  A
C821        H830   1.082       .  S
C822        C825   1.377       .  A
N823        C824   1.355       .  A
N823        H833   1.045       .  S
C824        C825   1.395       .  A
C825        H831   1.082       .  S
N826        C827   1.354       .  A
N826        H834   1.044       .  S
C827        C828   1.395       .  A
C828        H832   1.083       .  S
C835        C840   1.384       .  A
C835        C836   1.408   1_655  A
C835        N841   1.347       .  A
C836        C837   1.406       .  A
C836        H847   1.082       .  S
C837        C846   1.385       .  A
C837        C838   1.384   1_455  A
C838        C839   1.404       .  A
C838        N844   1.342   1_655  A
C839        C840   1.402       .  A
C839        H848   1.082       .  S
C840        C843   1.381       .  A
N841        C842   1.358       .  A
N841        H851   1.044       .  S
C842        C843   1.396       .  A
C843        H849   1.082       .  S
N844        C845   1.355       .  A
N844        H852   1.045   1_455  S
C845        C846   1.397       .  A
C846        H850   1.082       .  S
C853        C858   1.385       .  A
C853        C854   1.403       .  A
C853        N859   1.345       .  A
C854        C855   1.403   1_655  A
C854        H865   1.082       .  S
C855        C864   1.376       .  A
C855        C856   1.385       .  A
C856        C857   1.405       .  A
C856        N862   1.347       .  A
C857        C858   1.405   1_455  A
C857        H866   1.082       .  S
C858        C861   1.379       .  A
N859        C860   1.356       .  A
N859        H869   1.045       .  S
C860        C861   1.396       .  A
C861        H867   1.082       .  S
N862        C863   1.357       .  A
N862        H870   1.045       .  S
C863        C864   1.394       .  A
C864        H868   1.082   1_545  S
C871        C876   1.384       .  A
C871        C872   1.401       .  A
C871        N877   1.340       .  A
C872        C873   1.400       .  A
C872        H883   1.083       .  S
C873        C882   1.375       .  A
C873        C874   1.385       .  A
C874        C875   1.406       .  A
C874        N880   1.344       .  A
C875        C876   1.404       .  A
C875        H884   1.082       .  S
C876        C879   1.383   1_565  A
N877        C878   1.355   1_565  A
N877        H887   1.045       .  S
C878        C879   1.396       .  A
C879        H885   1.082       .  S
N880        C881   1.356       .  A
N880        H888   1.044       .  S
C881        C882   1.394       .  A
C882        H886   1.083       .  S
C889        C894   1.384       .  A
C889        C890   1.406       .  A
C889        N895   1.347       .  A
C890        C891   1.406       .  A
C890        H901   1.082       .  S
C891        C900   1.380       .  A
C891        C892   1.384       .  A
C892        C893   1.406       .  A
C892        N898   1.347       .  A
C893        C894   1.406       .  A
C893        H902   1.082       .  S
C894        C897   1.381       .  A
N895        C896   1.357       .  A
N895        H905   1.045       .  S
C896        C897   1.397       .  A
C897        H903   1.082       .  S
N898        C899   1.357       .  A
N898        H906   1.045       .  S
C899        C900   1.397       .  A
C900        H904   1.082       .  S
C907        C912   1.385   1_556  A
C907        C908   1.407       .  A
C907        N913   1.345   1_556  A
C908        C909   1.405       .  A
C908        H919   1.082       .  S
C909        C918   1.383       .  A
C909        C910   1.385       .  A
C910        C911   1.402   1_556  A
C910        N916   1.343       .  A
C911        C912   1.401       .  A
C911        H920   1.082       .  S
C912        C915   1.378       .  A
N913        C914   1.357       .  A
N913        H923   1.045       .  S
C914        C915   1.393       .  A
C915        H921   1.082       .  S
N916        C917   1.355       .  A
N916        H924   1.045       .  S
C917        C918   1.397       .  A
C918        H922   1.082       .  S
C925        C930   1.384       .  A
C925        C926   1.407   1_554  A
C925        N931   1.346       .  A
C926        C927   1.406       .  A
C926        H937   1.082       .  S
C927        C936   1.382       .  A
C927        C928   1.385       .  A
C928        C929   1.402   1_556  A
C928        N934   1.342       .  A
C929        C930   1.401       .  A
C929        H938   1.083       .  S
C930        C933   1.377       .  A
N931        C932   1.357       .  A
N931        H941   1.045       .  S
C932        C933   1.394       .  A
C933        H939   1.083       .  S
N934        C935   1.355       .  A
N934        H942   1.045       .  S
C935        C936   1.396       .  A
C936        H940   1.082       .  S
C943        C948   1.383       .  A
C943        C944   1.403       .  A
C943        N949   1.338       .  A
C944        C945   1.400       .  A
C944        H955   1.083       .  S
C945        C954   1.379       .  A
C945        C946   1.384       .  A
C946        C947   1.410       .  A
C946        N952   1.349       .  A
C947        C948   1.408       .  A
C947        H956   1.082       .  S
C948        C951   1.391       .  A
N949        C950   1.354       .  A
N949        H959   1.067       .  S
C950        C951   1.400       .  A
C951        H957   1.082       .  S
N952        C953   1.361       .  A
N952        H960   1.021       .  S
C953        C954   1.394       .  A
C954        H958   1.083       .  S
C961        C966   1.383   1_554  A
C961        C962   1.411       .  A
C961        N967   1.350       .  A
C962        C963   1.410       .  A
C962        H973   1.082       .  S
C963        C972   1.387       .  A
C963        C964   1.384   1_554  A
C964        C965   1.403       .  A
C964        N970   1.344       .  A
C965        C966   1.402       .  A
C965        H974   1.082       .  S
C966        C969   1.378       .  A
N967        C968   1.360   1_554  A
N967        H977   1.045       .  S
C968        C969   1.394       .  A
C969        H975   1.082       .  S
N970        C971   1.355   1_556  A
N970        H978   1.044       .  S
C971        C972   1.400       .  A
C972        H976   1.082       .  S
C979        C984   1.385       .  A
C979        C980   1.409       .  A
C979        N985   1.347       .  A
C980        C981   1.408       .  A
C980        H991   1.082       .  S
C981        C990   1.386       .  A
C981        C982   1.385       .  A
C982        C983   1.396       .  A
C982        N988   1.337       .  A
C983        C984   1.394       .  A
C983        H992   1.083       .  S
C984        C987   1.370       .  A
N985        C986   1.358       .  A
N985        H995   1.045       .  S
C986        C987   1.389       .  A
C987        H993   1.083       .  S
N988        C989   1.352       .  A
N988        H996   1.045       .  S
C989        C990   1.398       .  A
C990        H994   1.082       .  S
C997       C1002   1.385       .  A
C997        C998   1.404       .  A
C997       N1003   1.346       .  A
C998        C999   1.405       .  A
C998       H1009   1.082       .  S
C999       C1008   1.378   1_565  A
C999       C1000   1.385       .  A
C1000      C1001   1.405       .  A
C1000      N1006   1.348   1_565  A
C1001      C1002   1.405       .  A
C1001      H1010   1.082       .  S
C1002      C1005   1.377       .  A
N1003      C1004   1.355       .  A
N1003      H1013   1.045       .  S
C1004      C1005   1.396       .  A
C1005      H1011   1.083       .  S
N1006      C1007   1.357       .  A
N1006      H1014   1.044       .  S
C1007      C1008   1.397       .  A
C1008      H1012   1.082   1_545  S
C1015      C1020   1.384       .  A
C1015      C1016   1.407       .  A
C1015      N1021   1.345       .  A
C1016      C1017   1.405       .  A
C1016      H1027   1.082       .  S
C1017      C1026   1.384       .  A
C1017      C1018   1.384       .  A
C1018      C1019   1.404       .  A
C1018      N1024   1.342       .  A
C1019      C1020   1.402       .  A
C1019      H1028   1.082       .  S
C1020      C1023   1.381       .  A
N1021      C1022   1.357       .  A
N1021      H1031   1.045       .  S
C1022      C1023   1.395       .  A
C1023      H1029   1.082       .  S
N1024      C1025   1.356       .  A
N1024      H1032   1.044       .  S
C1025      C1026   1.397       .  A
C1026      H1030   1.082       .  S
C1033      C1038   1.384       .  A
C1033      C1034   1.407       .  A
C1033      N1039   1.346       .  A
C1034      C1035   1.405       .  A
C1034      H1045   1.082       .  S
C1035      C1044   1.384       .  A
C1035      C1036   1.384       .  A
C1036      C1037   1.408       .  A
C1036      N1042   1.345       .  A
C1037      C1038   1.407       .  A
C1037      H1046   1.082       .  S
C1038      C1041   1.385       .  A
N1039      C1040   1.357       .  A
N1039      H1049   1.044       .  S
C1040      C1041   1.399       .  A
C1041      H1047   1.082       .  S
N1042      C1043   1.357       .  A
N1042      H1050   1.044       .  S
C1043      C1044   1.397       .  A
C1044      H1048   1.082       .  S
C1051      C1056   1.384       .  A
C1051      C1052   1.404       .  A
C1051      N1057   1.342       .  A
C1052      C1053   1.403       .  A
C1052      H1063   1.082       .  S
C1053      C1062   1.381       .  A
C1053      C1054   1.384       .  A
C1054      C1055   1.407       .  A
C1054      N1060   1.346       .  A
C1055      C1056   1.405       .  A
C1055      H1064   1.082   1_565  S
C1056      C1059   1.383   1_565  A
N1057      C1058   1.356   1_565  A
N1057      H1067   1.045       .  S
C1058      C1059   1.396       .  A
C1059      H1065   1.082       .  S
N1060      C1061   1.358       .  A
N1060      H1068   1.044       .  S
C1061      C1062   1.396       .  A
C1062      H1066   1.082       .  S
C1069      C1074   1.384       .  A
C1069      C1070   1.406       .  A
C1069      N1075   1.348       .  A
C1070      C1071   1.406       .  A
C1070      H1081   1.082       .  S
C1071      C1080   1.379       .  A
C1071      C1072   1.384       .  A
C1072      C1073   1.408       .  A
C1072      N1078   1.350       .  A
C1073      C1074   1.409       .  A
C1073      H1082   1.082       .  S
C1074      C1077   1.383       .  A
N1075      C1076   1.358       .  A
N1075      H1085   1.044       .  S
C1076      C1077   1.399       .  A
C1077      H1083   1.082       .  S
N1078      C1079   1.358       .  A
N1078      H1086   1.045       .  S
C1079      C1080   1.396       .  A
C1080      H1084   1.082       .  S
C1087      C1092   1.384       .  A
C1087      C1088   1.407       .  A
C1087      N1093   1.346       .  A
C1088      C1089   1.406       .  A
C1088      H1099   1.082       .  S
C1089      C1098   1.384       .  A
C1089      C1090   1.385       .  A
C1090      C1091   1.404       .  A
C1090      N1096   1.343       .  A
C1091      C1092   1.402       .  A
C1091      H1100   1.082       .  S
C1092      C1095   1.380   1_565  A
N1093      C1094   1.357   1_565  A
N1093      H1103   1.045       .  S
C1094      C1095   1.395       .  A
C1095      H1101   1.082       .  S
N1096      C1097   1.356       .  A
N1096      H1104   1.045       .  S
C1097      C1098   1.397       .  A
C1098      H1102   1.082       .  S
C1105      C1110   1.384       .  A
C1105      C1106   1.412       .  A
C1105      N1111   1.347       .  A
C1106      C1107   1.409       .  A
C1106      H1117   1.082       .  S
C1107      C1116   1.390       .  A
C1107      C1108   1.384       .  A
C1108      C1109   1.400       .  A
C1108      N1114   1.337       .  A
C1109      C1110   1.398       .  A
C1109      H1118   1.083       .  S
C1110      C1113   1.378       .  A
N1111      C1112   1.359       .  A
N1111      H1121   1.045       .  S
C1112      C1113   1.394       .  A
C1113      H1119   1.082       .  S
N1114      C1115   1.353       .  A
N1114      H1122   1.045       .  S
C1115      C1116   1.400       .  A
C1116      H1120   1.082       .  S
C1123      C1128   1.384       .  A
C1123      C1124   1.405       .  A
C1123      N1129   1.347       .  A
C1124      C1125   1.404       .  A
C1124      H1135   1.082       .  S
C1125      C1134   1.378       .  A
C1125      C1126   1.384       .  A
C1126      C1127   1.409       .  A
C1126      N1132   1.350       .  A
C1127      C1128   1.409       .  A
C1127      H1136   1.082   1_565  S
C1128      C1131   1.384       .  A
N1129      C1130   1.357       .  A
N1129      H1139   1.044       .  S
C1130      C1131   1.400       .  A
C1131      H1137   1.082       .  S
N1132      C1133   1.359       .  A
N1132      H1140   1.045   1_565  S
C1133      C1134   1.395       .  A
C1134      H1138   1.082       .  S
C1141      C1146   1.385       .  A
C1141      C1142   1.399       .  A
C1141      N1147   1.342       .  A
C1142      C1143   1.399       .  A
C1142      H1153   1.083       .  S
C1143      C1152   1.372       .  A
C1143      C1144   1.384       .  A
C1144      C1145   1.408       .  A
C1144      N1150   1.349       .  A
C1145      C1146   1.408       .  A
C1145      H1154   1.082       .  S
C1146      C1149   1.382   1_545  A
N1147      C1148   1.353   1_545  A
N1147      H1157   1.045       .  S
C1148      C1149   1.398       .  A
C1149      H1155   1.082       .  S
N1150      C1151   1.358       .  A
N1150      H1158   1.045       .  S
C1151      C1152   1.392       .  A
C1152      H1156   1.083       .  S
C1159      C1164   1.385       .  A
C1159      C1160   1.408       .  A
C1159      N1165   1.348       .  A
C1160      C1161   1.408       .  A
C1160      H1171   1.082       .  S
C1161      C1170   1.384       .  A
C1161      C1162   1.385       .  A
C1162      C1163   1.402       .  A
C1162      N1168   1.343       .  A
C1163      C1164   1.402       .  A
C1163      H1172   1.082       .  S
C1164      C1167   1.377       .  A
N1165      C1166   1.358       .  A
N1165      H1175   1.044       .  S
C1166      C1167   1.395       .  A
C1167      H1173   1.083       .  S
N1168      C1169   1.354       .  A
N1168      H1176   1.045       .  S
C1169      C1170   1.399       .  A
C1170      H1174   1.082       .  S
