geometry optimzed in LAMMPS
_audit_creation_date              2020-12-01 
_audit_creation_method            'lammps2cif' 
_symmetry_space_group_name_H-M    'P1' 
_symmetry_Int_Tables_number       1 
_symmetry_cell_setting            triclinic 
loop_ 
_symmetry_equiv_pos_as_xyz 
  x,y,z 
_cell_length_a                    56.02774318 
_cell_length_b                    56.41204959419153 
_cell_length_c                    56.27879232849451 
_cell_angle_alpha                 90.08590877748988 
_cell_angle_beta                  90.05171958793886 
_cell_angle_gamma                 90.05074408310603 
loop_ 
_atom_site_label 
_atom_site_type_symbol 
_atom_site_fract_x 
_atom_site_fract_y 
_atom_site_fract_z 
_atom_site_charge 
C1          C  0.08051572  0.69866692  0.94668775     0.80300
N2          N  0.06719846  0.68170437  0.95770563    -0.78000
C3          C  0.04342559  0.67955254  0.95271004     0.82800
N4          N  0.03312970  0.69403279  0.93634309    -0.77900
C5          C  0.04643928  0.71080410  0.92523496     0.82800
N6          N  0.06986910  0.71290382  0.93052583    -0.79700
C7          C  0.88390534  0.69423197  0.94570493     0.80300
N8          N  0.89243389  0.70623366  0.92665311    -0.78000
C9          C  0.91519532  0.70365876  0.91905403     0.82800
N10         N  0.92999270  0.68855159  0.93072475    -0.77900
C11         C  0.92192156  0.67612445  0.94980819     0.82800
N12         N  0.89882475  0.67892366  0.95724755    -0.79700
C13         C  0.91945283  0.71512308  0.07727943     0.80300
N14         N  0.93387204  0.69810548  0.06760178    -0.78000
C15         C  0.92421051  0.68077140  0.05344975     0.82800
N16         N  0.90028890  0.68054473  0.04905713    -0.77900
C17         C  0.88619448  0.69766160  0.05843170     0.82800
N18         N  0.89586918  0.71460708  0.07228387    -0.79700
C19         C  0.04381538  0.71533090  0.08056197     0.80300
N20         N  0.06669905  0.71808540  0.07359485    -0.78000
C21         C  0.07610632  0.70427537  0.05641511     0.82800
N22         N  0.06253643  0.68704713  0.04618640    -0.77900
C23         C  0.03926968  0.68431842  0.05284451     0.82800
N24         N  0.02987864  0.69854247  0.07006791    -0.79700
C25         C  0.92616349  0.49008590  0.08505328     0.80300
N26         N  0.90207153  0.48945250  0.08339231    -0.78000
C27         C  0.88983510  0.50406985  0.06879479     0.82800
N28         N  0.90209448  0.51989840  0.05522283    -0.77900
C29         C  0.92644669  0.52066049  0.05640701     0.82800
N30         N  0.93834758  0.50577030  0.07132541    -0.79700
C31         C  0.90591591  0.48555546  0.94979791     0.80300
N32         N  0.91636408  0.50416865  0.96116869    -0.78000
C33         C  0.93510356  0.51574229  0.95109656     0.82800
N34         N  0.94373251  0.50849154  0.92970847    -0.77900
C35         C  0.93333893  0.48997371  0.91820802     0.82800
N36         N  0.91449880  0.47875478  0.92828048    -0.79700
C37         C  0.05838206  0.48219368  0.94653202     0.80300
N38         N  0.06030014  0.48505061  0.92275949    -0.78000
C39         C  0.05187832  0.50461463  0.91174075     0.82800
N40         N  0.04102101  0.52181221  0.92484121    -0.77900
C41         C  0.03881547  0.51929251  0.94889633     0.82800
N42         N  0.04747584  0.49939018  0.95966655    -0.79700
C43         C  0.04448275  0.51473179  0.10982317     0.80300
N44         N  0.05891380  0.49757418  0.10116246    -0.78000
C45         C  0.06120653  0.49386605  0.07753493     0.82800
N46         N  0.04872747  0.50762635  0.06202076    -0.77900
C47         C  0.03441036  0.52532570  0.07040879     0.82800
N48         N  0.03221103  0.52873544  0.09437989    -0.79700
O49         O  0.03614235  0.63945726  0.96122603    -0.75200
O50         O  0.01044377  0.66738200  0.97593032    -0.54100
C51         C  0.02908212  0.66098242  0.96409100     0.78500
O52         O  0.94073565  0.55677613  0.95658323    -0.59800
O53         O  0.96111470  0.53064048  0.98019015    -0.52800
C54         C  0.94631295  0.53568795  0.96347192     0.70500
O55         O  0.93383238  0.63657752  0.95633857    -0.74400
O56         O  0.95419189  0.66621507  0.97540801    -0.54900
C57         C  0.93770875  0.65858040  0.96126574     0.76500
O58         O  0.03138676  0.55985167  0.95664361    -0.59500
O59         O  0.01384429  0.53221622  0.98064710    -0.52600
C60         C  0.02737820  0.53827655  0.96310104     0.73100
Zr61       Zr  0.02115912  0.59986801  0.97059611     2.54700
O62         O  0.01957540  0.60325984  0.92748702    -0.80100
O63         O  0.06454308  0.59780655  0.97274498    -0.93500
Zr64       Zr  0.95086880  0.59789140  0.96681925     2.64700
O65         O  0.95825186  0.59825182  0.92414161    -0.98400
O66         O  0.90785719  0.59491351  0.96165635    -0.80500
O67         O  0.98538453  0.62246140  0.96714316    -0.83900
O68         O  0.98664511  0.57572827  0.96967464    -2.18600
O69         O  0.02663985  0.56447344  0.05862982    -0.67300
O70         O  0.01128319  0.53449182  0.03593349    -0.51800
C71         C  0.02335134  0.54238442  0.05383993     0.71500
O72         O  0.93314340  0.64054111  0.04706379    -0.60200
O73         O  0.95606235  0.66853066  0.02852461    -0.52100
C74         C  0.93908215  0.66216361  0.04259545     0.73300
O75         O  0.93260492  0.56065500  0.04650548    -0.71600
O76         O  0.95828324  0.53285305  0.03164363    -0.50200
C77         C  0.93983128  0.53916281  0.04375827     0.74700
O78         O  0.03037890  0.64375312  0.04913159    -0.66900
O79         O  0.00858131  0.67035844  0.02746464    -0.54100
C80         C  0.02498146  0.66497481  0.04259332     0.73100
Zr81       Zr  0.01712884  0.60304564  0.04128249     2.77500
O82         O  0.01215034  0.60830815  0.08395424    -0.97600
O83         O  0.06042269  0.60164472  0.04450171    -0.78500
Zr84       Zr  0.94676475  0.60054901  0.03697622     2.70100
O85         O  0.94777560  0.60001967  0.08020424    -0.79700
O86         O  0.90338173  0.60143827  0.03420708    -0.98800
Zr87       Zr  0.98262264  0.64651927  0.00206284     2.21500
Zr88       Zr  0.98615281  0.55425767  0.00622350     2.11100
O89         O  0.98262846  0.57871936  0.04064423    -2.47500
O90         O  0.98118737  0.62514242  0.03862423    -0.79500
O91         O  0.02116114  0.57837492  0.00707384    -0.71700
O92         O  0.94775121  0.62214687  0.00112179    -2.32700
O93         O  0.01864502  0.62408450  0.00495381    -2.28900
O94         O  0.94964487  0.57602443  0.00284464    -0.73500
H95         H  0.98727777  0.56506920  0.95628498     0.78500
H96         H  0.93340116  0.63157897  0.00050614     0.79600
H97         H  0.98167997  0.56925868  0.05490069     0.81900
H98         H  0.03242381  0.63433153  0.00530119     0.79500
H99         H  0.90169850  0.59174629  0.97782489     0.42500
H100        H  0.89913677  0.58746897  0.02439736     0.41500
H101        H  0.93140442  0.59541808  0.08494100     0.41100
H102        H  0.00068713  0.62156397  0.08551766     0.39100
H103        H  0.06622751  0.60832020  0.02930756     0.42200
H104        H  0.06936548  0.58752004  0.95931740     0.37000
H105        H  0.03593669  0.60792998  0.92277990     0.43100
H106        H  0.96609749  0.61368342  0.92109194     0.39500
H107        H  0.00309122  0.59417949  0.08920563     0.44400
H108        H  0.06784282  0.58824008  0.98710899     0.43200
H109        H  0.97097671  0.58635978  0.92157029     0.43300
H110        H  0.89774516  0.59742048  0.05037691     0.43700
C111        C  0.58691412  0.03156894  0.12297455     0.80300
N112        N  0.59738912  0.01159159  0.11469428    -0.78000
C113        C  0.59408304  0.00425193  0.09199129     0.82800
N114        N  0.57945815  0.01708928  0.07747881    -0.77900
C115        C  0.56885423  0.03733787  0.08550334     0.82800
N116        N  0.57252894  0.04446642  0.10839794    -0.79700
C117        C  0.59956057  0.04112977  0.93757860     0.80300
N118        N  0.60503592  0.01821048  0.94235485    -0.78000
C119        C  0.59401260  0.00630571  0.96001338     0.82800
N120        N  0.57715605  0.01732038  0.97328114    -0.77900
C121        C  0.57146409  0.04031778  0.96891412     0.82800
N122        N  0.58267320  0.05231287  0.95100904    -0.79700
C123        C  0.60291354  0.17048196  0.97193172     0.80300
N124        N  0.58618490  0.15770752  0.98394667    -0.78000
C125        C  0.56923630  0.14523475  0.97168513     0.82800
N126        N  0.56895829  0.14592597  0.94732776    -0.77900
C127        C  0.58573611  0.15881609  0.93543090     0.82800
N128        N  0.60246387  0.17063025  0.94799047    -0.79700
C129        C  0.58656581  0.18367319  0.08695073     0.80300
N130        N  0.57209061  0.16960025  0.07362807    -0.78000
C131        C  0.56561241  0.14782300  0.08186361     0.82800
N132        N  0.57309316  0.14049720  0.10370768    -0.77900
C133        C  0.58751731  0.15462728  0.11711480     0.82800
N134        N  0.59423611  0.17600739  0.10840112    -0.79700
C135        C  0.37605389  0.16534557  0.96203035     0.80300
N136        N  0.37888607  0.16467496  0.93817376    -0.78000
C137        C  0.39611177  0.15141093  0.92789218     0.82800
N138        N  0.41103229  0.13855005  0.94185962    -0.77900
C139        C  0.40857309  0.13905272  0.96599080     0.82800
N140        N  0.39097385  0.15244861  0.97611825    -0.79700
C141        C  0.37566252  0.03159379  0.94416305     0.80300
N142        N  0.39211438  0.04386269  0.95723476    -0.78000
C143        C  0.40928536  0.03206204  0.96982258     0.82800
N144        N  0.40979714  0.00783713  0.96944655    -0.77900
C145        C  0.39340017  0.99552584  0.95644824     0.82800
N146        N  0.37674834  0.00763663  0.94400051    -0.79700
C147        C  0.38646826  0.02518677  0.11533427     0.80300
N148        N  0.40153662  0.03909227  0.10243122    -0.78000
C149        C  0.40816061  0.03245353  0.08007774     0.82800
N150        N  0.39959366  0.01182681  0.07068197    -0.77900
C151        C  0.38461890  0.99790194  0.08366556     0.82800
N152        N  0.37825349  0.00471872  0.10583724    -0.79700
C153        C  0.37228823  0.16219279  0.08782615     0.80300
N154        N  0.37442911  0.16125674  0.11172603    -0.78000
C155        C  0.39229789  0.14925921  0.12237203     0.82800
N156        N  0.40872028  0.13794855  0.10866210    -0.77900
C157        C  0.40684080  0.13847924  0.08446616     0.82800
N158        N  0.38853501  0.15060615  0.07404576    -0.79700
O159        O  0.52872449  0.04396106  0.07559301    -0.75200
O160        O  0.55723923  0.06415185  0.05471196    -0.54100
C161        C  0.55056058  0.04929384  0.07087259     0.78500
O162        O  0.44976378  0.03936592  0.97977347    -0.59800
O163        O  0.42087229  0.06218119  0.99713967    -0.52800
C164        C  0.42778422  0.04541446  0.98313275     0.70500
O165        O  0.53071959  0.04474777  0.97798789    -0.74400
O166        O  0.55817467  0.06645385  0.99897580    -0.54900
C167        C  0.55225467  0.05138929  0.98276827     0.76500
O168        O  0.44849269  0.04178289  0.07328240    -0.59500
O169        O  0.42006027  0.06082741  0.05118433    -0.52600
C170        C  0.42667392  0.04599267  0.06733622     0.73100
Zr171      Zr  0.48872406  0.05404876  0.06139966     2.54700
O172        O  0.49067970  0.01109873  0.05751173    -0.80100
O173        O  0.48713369  0.05348454  0.10464180    -0.93500
Zr174      Zr  0.48987038  0.05313068  0.99149207     2.64700
O175        O  0.49287340  0.01027817  0.99578743    -0.98400
O176        O  0.48832124  0.05150065  0.94828685    -0.80500
O177        O  0.51312451  0.05384142  0.02689254    -0.83900
O178        O  0.46570664  0.05292399  0.02603981    -2.18600
O179        O  0.44716571  0.13133219  0.07623977    -0.67300
O180        O  0.41931581  0.11416283  0.05202569    -0.51800
C181        C  0.42551709  0.12721074  0.06987587     0.71500
O182        O  0.52877990  0.13527705  0.97789873    -0.60200
O183        O  0.55689976  0.11838820  0.00195443    -0.52100
C184        C  0.55050035  0.13207996  0.98471809     0.73300
O185        O  0.44864368  0.13147535  0.97517563    -0.71600
O186        O  0.41991404  0.11414636  0.99818278    -0.50200
C187        C  0.42675041  0.12739771  0.98082328     0.74700
O188        O  0.52617352  0.13843982  0.07269624    -0.66900
O189        O  0.55575773  0.11760691  0.05409612    -0.54100
C190        C  0.54818688  0.13363621  0.06861227     0.73100
Zr191      Zr  0.48702721  0.12422761  0.06069201     2.77500
O192        O  0.48321839  0.16708010  0.05696478    -0.97600
O193        O  0.48912052  0.12655165  0.10386276    -0.78500
Zr194      Zr  0.48863723  0.12338706  0.99048887     2.70100
O195        O  0.48680548  0.16645150  0.99271264    -0.79700
O196        O  0.49210108  0.12338609  0.94736247    -0.98800
Zr197      Zr  0.53534249  0.09016139  0.02719126     2.21500
Zr198      Zr  0.44179452  0.08809774  0.02516031     2.11100
O199        O  0.46431585  0.12411938  0.02507754    -2.47500
O200        O  0.51126894  0.12500333  0.02614368    -0.79500
O201        O  0.46457799  0.08860986  0.06103305    -0.71700
O202        O  0.51237589  0.08883992  0.99131249    -2.32700
O203        O  0.51115892  0.08977757  0.06214865    -2.28900
O204        O  0.46591838  0.08783512  0.99011313    -0.73500
H205        H  0.45580985  0.03888550  0.02604970     0.78500
H206        H  0.52255586  0.08918043  0.97751465     0.79600
H207        H  0.45382891  0.13764562  0.02467761     0.81900
H208        H  0.52098968  0.09026782  0.07627107     0.79500
H209        H  0.47583979  0.06310221  0.94385053     0.42500
H210        H  0.47980804  0.11202865  0.94183007     0.41500
H211        H  0.50257593  0.17127589  0.99904702     0.41100
H212        H  0.49434288  0.17139211  0.04401656     0.39100
H213        H  0.50027912  0.11379230  0.10856966     0.42200
H214        H  0.50004564  0.06432678  0.10981385     0.37000
H215        H  0.48682645  0.00505549  0.07356498     0.43100
H216        H  0.49046717  0.00403177  0.97950823     0.39500
H217        H  0.46713135  0.16975370  0.05020312     0.44400
H218        H  0.49282283  0.03748696  0.10911980     0.43200
H219        H  0.50992378  0.00723352  0.99926613     0.43300
H220        H  0.48608762  0.13912226  0.94240546     0.43700
C221        C  0.06297818  0.05978781  0.63249194     0.80300
N222        N  0.05626192  0.03732025  0.63768825    -0.78000
C223        C  0.04025736  0.02566388  0.62400661     0.82800
N224        N  0.03064892  0.03660357  0.60472334    -0.77900
C225        C  0.03707255  0.05930079  0.59937991     0.82800
N226        N  0.05325973  0.07090579  0.61332422    -0.79700
C227        C  0.90639411  0.05728045  0.62621267     0.80300
N228        N  0.91139626  0.03432926  0.63065260    -0.78000
C229        C  0.92821181  0.02242792  0.61816220     0.82800
N230        N  0.94037624  0.03412601  0.60079053    -0.77900
C231        C  0.93574711  0.05749141  0.59642059     0.82800
N232        N  0.91854429  0.06898097  0.60900767    -0.79700
C233        C  0.92810791  0.20270074  0.61362677     0.80300
N234        N  0.94043315  0.18863395  0.59832080    -0.78000
C235        C  0.92975292  0.16950225  0.58810289     0.82800
N236        N  0.90655851  0.16423628  0.59347959    -0.77900
C237        C  0.89415120  0.17832654  0.60885670     0.82800
N238        N  0.90502937  0.19744378  0.61858615    -0.79700
C239        C  0.06205415  0.20280862  0.60506869     0.80300
N240        N  0.08020808  0.19037219  0.61476716    -0.78000
C241        C  0.08249788  0.16682656  0.61132125     0.82800
N242        N  0.06603354  0.15502682  0.59803187    -0.77900
C243        C  0.04731841  0.16710785  0.58828809     0.82800
N244        N  0.04552857  0.19107416  0.59161321    -0.79700
C245        C  0.93311072  0.18298222  0.39422642     0.80300
N246        N  0.94530198  0.17301563  0.41265589    -0.78000
C247        C  0.93441837  0.15645979  0.42660867     0.82800
N248        N  0.91149408  0.15001289  0.42213418    -0.77900
C249        C  0.89938172  0.16005829  0.40387285     0.82800
N250        N  0.91019547  0.17651718  0.39017462    -0.79700
C251        C  0.88539959  0.04421770  0.42736577     0.80300
N252        N  0.90045374  0.05737323  0.44105362    -0.78000
C253        C  0.92458760  0.05607063  0.43759061     0.82800
N254        N  0.93352953  0.04153823  0.42037903    -0.77900
C255        C  0.91837167  0.02833846  0.40683260     0.82800
N256        N  0.89462413  0.02988418  0.41051117    -0.79700
C257        C  0.08436170  0.04706630  0.41909365     0.80300
N258        N  0.07320374  0.03506024  0.40150080    -0.78000
C259        C  0.04931055  0.03193570  0.40158371     0.82800
N260        N  0.03618376  0.04123941  0.41960353    -0.77900
C261        C  0.04715476  0.05332718  0.43754584     0.82800
N262        N  0.07133983  0.05629490  0.43727501    -0.79700
C263        C  0.05276048  0.18919102  0.40436701     0.80300
N264        N  0.03840331  0.17774858  0.42017559    -0.78000
C265        C  0.04542889  0.15657056  0.42961286     0.82800
N266        N  0.06718127  0.14736681  0.42373314    -0.77900
C267        C  0.08167365  0.15896794  0.40815215     0.82800
N268        N  0.07412210  0.17972168  0.39878589    -0.79700
O269        O  0.94404280  0.06180865  0.55588703    -0.75200
O270        O  0.96063894  0.08818268  0.58207975    -0.54100
C271        C  0.94780475  0.06987304  0.57694831     0.78500
O272        O  0.03900699  0.06330123  0.47757054    -0.59800
O273        O  0.01454950  0.07719937  0.44817398    -0.52800
C274        C  0.03261646  0.06526266  0.45564985     0.70500
O275        O  0.03095546  0.06361918  0.55798028    -0.74400
O276        O  0.01217067  0.08901002  0.58358330    -0.54900
C277        C  0.02606222  0.07143857  0.57899341     0.76500
O278        O  0.93521531  0.06526686  0.47663079    -0.59500
O279        O  0.95906354  0.07933493  0.44690757    -0.52600
C280        C  0.94074867  0.06775353  0.45462734     0.73100
Zr281      Zr  0.95192572  0.07472548  0.51537519     2.54700
O282        O  0.95093078  0.03164721  0.51287352    -0.80100
O283        O  0.90892837  0.07846428  0.52061574    -0.93500
Zr284      Zr  0.02239364  0.07424356  0.51637278     2.64700
O285        O  0.01732193  0.03133894  0.51667567    -0.98400
O286        O  0.06572116  0.07292723  0.51991915    -0.80500
O287        O  0.98692196  0.07664219  0.53897512    -0.83900
O288        O  0.98741654  0.07181771  0.49249227    -2.17400
O289        O  0.94004537  0.15136044  0.46778699    -0.67300
O290        O  0.96376590  0.13087329  0.44183939    -0.51800
C291        C  0.94701405  0.14564415  0.44667883     0.71500
O292        O  0.03573369  0.15920602  0.54903330    -0.60200
O293        O  0.01572578  0.14024208  0.57884726    -0.52100
C294        C  0.03160050  0.15493790  0.57109760     0.73300
O295        O  0.03558528  0.15297256  0.46993781    -0.71600
O296        O  0.01592068  0.12934336  0.44330386    -0.50200
C297        C  0.03130448  0.14552803  0.44873576     0.74700
O298        O  0.93732359  0.15782806  0.54853747    -0.66900
O299        O  0.96017180  0.14207674  0.57829180    -0.54100
C300        C  0.94315124  0.15537251  0.57057645     0.73100
Zr301      Zr  0.95130020  0.14412810  0.50946075     2.77500
O302        O  0.94915460  0.18698351  0.50522715    -0.97600
O303        O  0.90792700  0.14119434  0.50836718    -0.78500
Zr304      Zr  0.02239475  0.14450631  0.51040692     2.70100
O305        O  0.02139539  0.18749889  0.50669991    -0.79700
O306        O  0.06575593  0.14151514  0.51039887    -0.98800
Zr307      Zr  0.98693179  0.11393496  0.55897572     2.21500
Zr308      Zr  0.98788724  0.10553739  0.46682072     2.11100
O309        O  0.98722000  0.14289360  0.48699132    -2.47500
O310        O  0.98662834  0.14741411  0.53298829    -0.79500
O311        O  0.95177333  0.10741556  0.48912178    -0.71700
O312        O  0.02281047  0.11137451  0.53631527    -2.32700
O313        O  0.95119213  0.11138351  0.53584047    -2.28900
O314        O  0.02306267  0.10746705  0.49046433    -0.73500
H315        H  0.98726614  0.05734739  0.48334571     0.78500
H316        H  0.03670783  0.11200544  0.54647556     0.79600
H317        H  0.98740694  0.15585294  0.47578753     0.81900
H318        H  0.93729105  0.11181716  0.54593498     0.79500
H319        H  0.06907520  0.05966088  0.53091863     0.42500
H320        H  0.06942592  0.12967943  0.49791120     0.41500
H321        H  0.03572159  0.19313467  0.51534248     0.41100
H322        H  0.93261387  0.19102474  0.50991708     0.39100
H323        H  0.90401868  0.12768757  0.51886930     0.42200
H324        H  0.90302002  0.06195404  0.52157470     0.37000
H325        H  0.93380525  0.02751376  0.51420886     0.43100
H326        H  0.00204120  0.02876791  0.52512442     0.39500
H327        H  0.95920678  0.19325076  0.51827821     0.44400
H328        H  0.90289349  0.08436082  0.50517443     0.43200
H329        H  0.01385447  0.02694705  0.49998746     0.43300
H330        H  0.07136319  0.15678482  0.50377803     0.43700
C331        C  0.99482894  0.36881503  0.28630456     0.03600
S332        S  0.96957285  0.34923791  0.28890537    -0.10400
C333        C  0.98508845  0.32971150  0.30856454    -0.01600
C334        C  0.00766335  0.33494452  0.31492271    -0.01600
S335        S  0.02073640  0.36192168  0.30404722    -0.10400
C336        C  0.00486366  0.42408880  0.24525747    -0.01600
C337        C  0.98493726  0.41495074  0.23557734    -0.01600
S338        S  0.97009030  0.39121505  0.25055323    -0.10400
C339        C  0.99433547  0.38747688  0.27122134     0.03600
S340        S  0.01790326  0.40925727  0.27030869    -0.10400
C341        C  0.27913038  0.09119488  0.32719267     0.03600
S342        S  0.27039629  0.06414249  0.34186459    -0.10400
C343        C  0.24523758  0.07820264  0.35580566    -0.01600
C344        C  0.24268739  0.10180045  0.35310438    -0.01600
S345        S  0.26485405  0.11799511  0.33701782    -0.10400
C346        C  0.32159534  0.10414176  0.27357346    -0.01600
C347        C  0.32080468  0.08032048  0.27243334    -0.01600
S348        S  0.30599332  0.06452658  0.29584026    -0.10400
C349        C  0.29511238  0.09146818  0.30919006     0.03600
S350        S  0.30556853  0.11896186  0.29672963    -0.10400
C351        C  0.19184385  0.31910912  0.02374800     0.03600
S352        S  0.18065908  0.33266582  0.05057785    -0.10400
C353        C  0.16330026  0.35409383  0.03433597    -0.01600
C354        C  0.16255045  0.35240162  0.01046264    -0.01600
S355        S  0.18010025  0.33012767  0.99605663    -0.10400
C356        C  0.24341645  0.27354628  0.01258790    -0.01600
C357        C  0.24063105  0.27056112  0.03612874    -0.01600
S358        S  0.21866785  0.28816116  0.05132823    -0.10400
C359        C  0.20872431  0.30189053  0.02409038     0.03600
S360        S  0.22281838  0.29209880  0.99700309    -0.10400
C361        C  0.68164433  0.09376978  0.31211403     0.03600
S362        S  0.67328691  0.11979118  0.29562083    -0.10400
C363        C  0.65516478  0.10306027  0.27547144    -0.01600
C364        C  0.65237864  0.07961671  0.27922456    -0.01600
S365        S  0.66653205  0.06654976  0.30466468    -0.10400
C366        C  0.73272021  0.08342422  0.35840006    -0.01600
C367        C  0.73733134  0.10589864  0.35184689    -0.01600
S368        S  0.71647162  0.12104287  0.33323763    -0.10400
C369        C  0.69905728  0.09459800  0.32875719     0.03600
S370        S  0.70660404  0.06920433  0.34667753    -0.10400
C371        C  0.98093530  0.88717371  0.24496579     0.03600
S372        S  0.00802382  0.90096535  0.25545910    -0.10400
C373        C  0.99217444  0.91863625  0.27664466    -0.01600
C374        C  0.96834865  0.91634198  0.27816786    -0.01600
S375        S  0.95329330  0.89686387  0.25807338    -0.10400
C376        C  0.96976172  0.83780197  0.19731893    -0.01600
C377        C  0.99376747  0.83720345  0.19848460    -0.01600
S378        S  0.00892124  0.85836054  0.21685132    -0.10400
C379        C  0.98126910  0.87010601  0.22810129     0.03600
S380        S  0.95400269  0.85794675  0.21616906    -0.10400
C381        C  0.24298347  0.11493487  0.75395637     0.03600
S382        S  0.21770560  0.09525369  0.75632715    -0.10400
C383        C  0.20305089  0.10795913  0.73109394    -0.01600
C384        C  0.21384934  0.12574832  0.71933940    -0.01600
S385        S  0.24206185  0.13650966  0.73027446    -0.10400
C386        C  0.30008468  0.12099340  0.79457498    -0.01600
C387        C  0.28845718  0.10349980  0.80598256    -0.01600
S388        S  0.26138102  0.09218485  0.79331200    -0.10400
C389        C  0.26153334  0.11348364  0.76945915     0.03600
S390        S  0.28736310  0.13256170  0.76756881    -0.10400
C391        C  0.00925823  0.40612155  0.72506811     0.03600
S392        S  0.98257237  0.41214718  0.74173119    -0.10400
C393        C  0.99834739  0.43023303  0.76254010    -0.01600
C394        C  0.02127601  0.43574555  0.75821112    -0.01600
S395        S  0.03530906  0.42350538  0.73229323    -0.10400
C396        C  0.02265023  0.35595455  0.67888670    -0.01600
C397        C  0.99938639  0.35179245  0.68303369    -0.01600
S398        S  0.98329437  0.37177686  0.70175271    -0.10400
C399        C  0.00966760  0.38880020  0.70844790     0.03600
S400        S  0.03657650  0.38102741  0.69280738    -0.10400
C401        C  0.28920040  0.80966152  0.00796122     0.03600
S402        S  0.29676707  0.82491599  0.03503180    -0.10400
C403        C  0.31498055  0.84607782  0.01984061    -0.01600
C404        C  0.31886051  0.84341174  0.99642009    -0.01600
S405        S  0.30342110  0.81996044  0.98109889    -0.10400
C406        C  0.23897551  0.76286833  0.99625038    -0.01600
C407        C  0.23858202  0.76341117  0.02021686    -0.01600
S408        S  0.26078169  0.78058536  0.03539060    -0.10400
C409        C  0.27313745  0.79169127  0.00800560     0.03600
S410        S  0.26248675  0.77825343  0.98094982    -0.10400
C411        C  0.70664746  0.35858353  0.02315954     0.03600
S412        S  0.68441662  0.35550058  0.04615231    -0.10400
C413        C  0.67535081  0.32673033  0.03565454    -0.01600
C414        C  0.68648132  0.31775824  0.01643787    -0.01600
S415        S  0.70827320  0.33527821  0.00137872    -0.10400
C416        C  0.75842822  0.40391098  0.01289753    -0.01600
C417        C  0.74935302  0.41272918  0.03317171    -0.01600
S418        S  0.72262452  0.39971551  0.04504741    -0.10400
C419        C  0.72198100  0.37712809  0.02236408     0.03600
S420        S  0.74346266  0.37974818  0.99870822    -0.10400
C421        C  0.98334858  0.82220354  0.74192544     0.03600
S422        S  0.01025273  0.81506874  0.75790510    -0.10400
C423        C  0.99412042  0.79943794  0.78037638    -0.01600
C424        C  0.97033768  0.79707588  0.77816779    -0.01600
S425        S  0.95566430  0.81082885  0.75355079    -0.10400
C426        C  0.97238921  0.86787543  0.69163787    -0.01600
C427        C  0.99637891  0.86849379  0.69247279    -0.01600
S428        S  0.01155698  0.84744318  0.71077434    -0.10400
C429        C  0.98387684  0.83615119  0.72244604     0.03600
S430        S  0.95691081  0.84516352  0.70760999    -0.10400
C431        C  0.70963753  0.12491823  0.75997207     0.03600
S432        S  0.68918972  0.14908497  0.76562009    -0.10400
C433        C  0.67459980  0.13357676  0.78960570    -0.01600
C434        C  0.68210111  0.11154246  0.79485628    -0.01600
S435        S  0.70570212  0.09866801  0.77775728    -0.10400
C436        C  0.76414327  0.11652253  0.71667615    -0.01600
C437        C  0.75675226  0.13802798  0.70923343    -0.01600
S438        S  0.73175963  0.15144566  0.72438685    -0.10400
C439        C  0.72722934  0.12601056  0.74336277     0.03600
S440        S  0.74750615  0.10155971  0.73929666    -0.10400
C441        C  0.68026544  0.80932081  0.01866800     0.03600
S442        S  0.67098292  0.82358469  0.99158964    -0.10400
C443        C  0.65741816  0.84785711  0.00720473    -0.01600
C444        C  0.65756182  0.84772090  0.03111771    -0.01600
S445        S  0.67032502  0.82264438  0.04609674    -0.10400
C446        C  0.72653988  0.75899965  0.03082778    -0.01600
C447        C  0.72844665  0.76047626  0.00696551    -0.01600
S448        S  0.70724453  0.77852794  0.99125979    -0.10400
C449        C  0.69463064  0.78997695  0.01842280     0.03600
S450        S  0.70280140  0.77481924  0.04533602    -0.10400
C451        C  0.04682480  0.21261249  0.39403649    -0.19800
C452        C  0.02603985  0.21680402  0.38035446     0.36400
C453        C  0.02342545  0.23868752  0.36882680    -0.25800
C454        C  0.04107023  0.25630108  0.36986031     0.02900
C455        C  0.06206455  0.25198426  0.38304175     0.27700
C456        C  0.06454821  0.23034309  0.39504984    -0.24900
N457        N  0.00779431  0.19919555  0.37673066    -0.82300
H458        H  0.00765385  0.24176513  0.35831949     0.13500
C459        C  0.03702539  0.27863770  0.35647182     0.02800
N460        N  0.08152679  0.26860315  0.38394696    -0.80800
H461        H  0.08090449  0.22706855  0.40481876     0.18300
C462        C  0.02505061  0.29728461  0.36784674    -0.25700
C463        C  0.01722659  0.31722208  0.35516559     0.36300
C464        C  0.02160107  0.31862489  0.33043664    -0.19700
C465        C  0.03544841  0.30097931  0.31951969    -0.25000
C466        C  0.04313968  0.28093580  0.33216622     0.27700
H467        H  0.02084058  0.29586909  0.38658406     0.13500
N468        N  0.00441055  0.33533329  0.36781901    -0.82200
H469        H  0.03879028  0.30190680  0.30057504     0.18300
N470        N  0.05610285  0.26292087  0.31949487    -0.80800
H471        H  0.98850191  0.32788424  0.37399985     0.34000
H472        H  0.99985315  0.34946737  0.35676283     0.38500
H473        H  0.07209656  0.27049999  0.31368051     0.33900
H474        H  0.06083710  0.24883723  0.33052576     0.30600
H475        H  0.08334138  0.27421313  0.40156582     0.33900
H476        H  0.07806950  0.28370838  0.37383922     0.30600
H477        H  0.01186820  0.18321647  0.38502641     0.38500
H478        H  0.00702766  0.19551209  0.35852802     0.34000
C479        C  0.10603879  0.15043815  0.40151693    -0.19800
C480        C  0.11787772  0.13137214  0.41290200     0.36400
C481        C  0.14108876  0.12505167  0.40550092    -0.25800
C482        C  0.15272599  0.13749502  0.38727146     0.02900
C483        C  0.14126264  0.15670831  0.37634716     0.27700
C484        C  0.11812094  0.16275343  0.38330794    -0.24900
N485        N  0.10653898  0.11851871  0.43181785    -0.82300
H486        H  0.15005973  0.11021705  0.41378157     0.13500
C487        C  0.17637809  0.12966069  0.37857346     0.02800
N488        N  0.15327657  0.17005062  0.35815180    -0.80800
H489        H  0.10960395  0.17743166  0.37430482     0.18300
C490        C  0.17839643  0.12209300  0.35492839    -0.25700
C491        C  0.20011431  0.11417756  0.34573100     0.36300
C492        C  0.22053335  0.11410403  0.36052270    -0.19700
C493        C  0.21890280  0.12311445  0.38374352    -0.25000
C494        C  0.19687635  0.13068469  0.39303360     0.27700
H495        H  0.16277673  0.12199806  0.34354979     0.13500
N496        N  0.20067526  0.10644538  0.32137085    -0.82200
H497        H  0.23464063  0.12320568  0.39494499     0.18300
N498        N  0.19518180  0.13928324  0.41701939    -0.80800
H499        H  0.18925876  0.09187911  0.31977409     0.34000
H500        H  0.21762586  0.10081070  0.31621570     0.38500
H501        H  0.21186757  0.13870921  0.42533117     0.33900
H502        H  0.19023696  0.15713300  0.41623614     0.30600
H503        H  0.14235473  0.18363211  0.35173734     0.33900
H504        H  0.16807318  0.17824770  0.36598503     0.30600
H505        H  0.10502133  0.13005405  0.44629528     0.38500
H506        H  0.11733625  0.10450426  0.43747874     0.34000
C507        C  0.22699077  0.06423292  0.36911161    -0.19800
C508        C  0.20913347  0.05093688  0.35725540     0.36400
C509        C  0.18769164  0.04596145  0.36909528    -0.25800
C510        C  0.18305191  0.05492348  0.39196670     0.02900
C511        C  0.20189653  0.06595968  0.40457136     0.27700
C512        C  0.22387202  0.06956185  0.39331424    -0.24900
N513        N  0.21150140  0.04312034  0.33304086    -0.82300
H514        H  0.17375264  0.03656569  0.35958579     0.13500
C515        C  0.15790788  0.05501753  0.40074210     0.02800
N516        N  0.19875089  0.07567124  0.42789284    -0.80800
H517        H  0.23766421  0.07928717  0.40270081     0.18300
C518        C  0.15183103  0.04471093  0.42271140    -0.25700
C519        C  0.12786877  0.04374213  0.43044148     0.36300
C520        C  0.10976665  0.05267881  0.41559097    -0.19700
C521        C  0.11588771  0.06347101  0.39408475    -0.25000
C522        C  0.13956940  0.06471510  0.38654040     0.27700
H523        H  0.16554902  0.03640758  0.43334595     0.13500
N524        N  0.12175205  0.03250544  0.45250061    -0.82200
H525        H  0.10197290  0.07021363  0.38251517     0.18300
N526        N  0.14477623  0.07536551  0.36404608    -0.80800
H527        H  0.13712762  0.02644142  0.46109648     0.34000
H528        H  0.11431543  0.04546266  0.46353436     0.38500
H529        H  0.13769038  0.09248751  0.36412327     0.33900
H530        H  0.13577676  0.06573927  0.35090568     0.30600
H531        H  0.19537683  0.06193209  0.43980784     0.33900
H532        H  0.18419716  0.08723373  0.42769102     0.30600
H533        H  0.22773361  0.04821428  0.32566053     0.38500
H534        H  0.19814807  0.05128182  0.32300969     0.34000
C535        C  0.03826554  0.01841377  0.38195993    -0.19800
C536        C  0.04701391  0.02062844  0.35856624     0.36400
C537        C  0.03921749  0.00498410  0.34089235    -0.25800
C538        C  0.02289626  0.98690296  0.34606005     0.02900
C539        C  0.01346931  0.98507053  0.36931196     0.27700
C540        C  0.02098443  0.00115185  0.38696276    -0.24900
N541        N  0.06404093  0.03866659  0.35271302    -0.82300
H542        H  0.04662093  0.00648407  0.32317237     0.13500
C543        C  0.01681099  0.96953785  0.32712083     0.02800
N544        N  0.99702694  0.96640479  0.37511567    -0.80800
H545        H  0.01438629  0.99933555  0.40496262     0.18300
C546        C  0.02099787  0.94530753  0.33105280    -0.25700
C547        C  0.01520722  0.92830124  0.31369808     0.36300
C548        C  0.00503415  0.93572643  0.29209449    -0.19700
C549        C  0.00228212  0.95998640  0.28752253    -0.25000
C550        C  0.00780021  0.97700253  0.30490205     0.27700
H551        H  0.02856558  0.93965061  0.34783254     0.13500
N552        N  0.01845571  0.90347578  0.31833344    -0.82200
H553        H  0.99426444  0.96551291  0.27089815     0.18300
N554        N  0.00368410  0.00172926  0.30029392    -0.80800
H555        H  0.02556616  0.90091989  0.33531943     0.34000
H556        H  0.03114435  0.89715395  0.30628981     0.38500
H557        H  0.99688423  0.00414992  0.28316084     0.33900
H558        H  0.99052752  0.00759037  0.31202164     0.30600
H559        H  0.99152099  0.96777554  0.39281220     0.33900
H560        H  0.98184830  0.96870932  0.36468301     0.30600
H561        H  0.07933213  0.03041184  0.34601729     0.38500
H562        H  0.05679127  0.04917252  0.33923146     0.34000
C563        C  0.85904982  0.04595151  0.42894107    -0.19800
C564        C  0.84484481  0.02599826  0.42328822     0.36400
C565        C  0.82105353  0.02907522  0.41633710    -0.25800
C566        C  0.81102942  0.05173093  0.41536179     0.02900
C567        C  0.82395678  0.07122464  0.42449502     0.27700
C568        C  0.84806160  0.06820219  0.43108588    -0.24900
N569        N  0.85492415  0.00265804  0.42344603    -0.82300
H570        H  0.81090450  0.01393064  0.41008527     0.13500
C571        C  0.78922916  0.05548264  0.40090235     0.02800
N572        N  0.81279990  0.09408900  0.42614406    -0.80800
H573        H  0.85866902  0.08349954  0.43603717     0.18300
C574        C  0.76761733  0.06166677  0.41183549    -0.25700
C575        C  0.74785339  0.06891971  0.39811792     0.36300
C576        C  0.74996493  0.06988633  0.37314243    -0.19700
C577        C  0.77086134  0.06172491  0.36226983    -0.25000
C578        C  0.79060438  0.05505952  0.37580799     0.27700
H579        H  0.76651959  0.06174521  0.43105376     0.13500
N580        N  0.72586570  0.07561166  0.40940807    -0.82200
H581        H  0.77247411  0.06232887  0.34308982     0.18300
N582        N  0.81233114  0.04946198  0.36361612    -0.80800
H583        H  0.72726010  0.07377141  0.42784263     0.34000
H584        H  0.72292932  0.09357778  0.40611817     0.38500
H585        H  0.81734599  0.03218023  0.36798555     0.33900
H586        H  0.82564840  0.06113569  0.36937089     0.30600
H587        H  0.82491862  0.10674127  0.43242018     0.33900
H588        H  0.80780849  0.09925443  0.40906312     0.30600
H589        H  0.85319391  0.99546599  0.40639402     0.38500
H590        H  0.84491934  0.99222108  0.43511186     0.34000
C591        C  0.92670887  0.01098568  0.38906095    -0.19800
C592        C  0.94303909  0.01683510  0.37094660     0.36400
C593        C  0.94717208  0.00065271  0.35250594    -0.25800
C594        C  0.93544514  0.97858976  0.35177493     0.02900
C595        C  0.91938299  0.97260262  0.37006435     0.27700
C596        C  0.91527394  0.98880656  0.38850170    -0.24900
N597        N  0.95493882  0.03930235  0.37033021    -0.82300
H598        H  0.95972868  0.00527475  0.33871271     0.13500
C599        C  0.94081556  0.96153886  0.33233772     0.02800
N600        N  0.90690807  0.95031474  0.36955717    -0.80800
H601        H  0.90257516  0.98431927  0.40230544     0.18300
C602        C  0.94866118  0.93864152  0.33816038    -0.25700
C603        C  0.95521951  0.92239851  0.32054851     0.36300
C604        C  0.95465862  0.92947787  0.29645363    -0.19700
C605        C  0.94555468  0.95182777  0.29048226    -0.25000
C606        C  0.93858825  0.96797337  0.30821518     0.27700
H607        H  0.95036175  0.93352410  0.35663838     0.13500
N608        N  0.96333425  0.89933405  0.32782367    -0.82200
H609        H  0.94529622  0.95719980  0.27200425     0.18300
N610        N  0.92980282  0.99104156  0.30187722    -0.80800
H611        H  0.94921872  0.89108607  0.33671548     0.34000
H612        H  0.96716816  0.88857580  0.31321684     0.38500
H613        H  0.92950701  0.99304984  0.28341342     0.33900
H614        H  0.91209948  0.99212649  0.30762955     0.30600
H615        H  0.89575287  0.94864928  0.38434618     0.33900
H616        H  0.89584406  0.95030333  0.35458730     0.30600
H617        H  0.96532092  0.04096214  0.38567953     0.38500
H618        H  0.94204944  0.05269551  0.37031549     0.34000
C619        C  0.97326926  0.30765123  0.31670825    -0.19800
C620        C  0.95679295  0.30797764  0.33556103     0.36400
C621        C  0.95028330  0.28649997  0.34643056    -0.25800
C622        C  0.95995609  0.26479180  0.33877997     0.02900
C623        C  0.97496159  0.26455993  0.31848037     0.27700
C624        C  0.98129531  0.28593641  0.30770670    -0.24900
N625        N  0.94776824  0.33015045  0.34436479    -0.82300
H626        H  0.93817202  0.28672862  0.36142865     0.13500
C627        C  0.95501024  0.24304302  0.35292747     0.02800
N628        N  0.98488249  0.24319036  0.30886020    -0.80800
H629        H  0.99363035  0.28570669  0.29288282     0.18300
C630        C  0.94405769  0.22355079  0.34195784    -0.25700
C631        C  0.93832929  0.20314630  0.35489700     0.36300
C632        C  0.94345513  0.20201996  0.37941553    -0.19700
C633        C  0.95492924  0.22120909  0.39039170    -0.25000
C634        C  0.96024377  0.24197468  0.37756546     0.27700
H635        H  0.93886497  0.22448312  0.32346095     0.13500
N636        N  0.92684233  0.18369277  0.34312207    -0.82200
H637        H  0.95828546  0.22062092  0.40934547     0.18300
N638        N  0.96961192  0.26239458  0.38978174    -0.80800
H639        H  0.93786139  0.17809653  0.32922181     0.34000
H640        H  0.91088029  0.18986034  0.33574391     0.38500
H641        H  0.97274290  0.25854508  0.40768131     0.33900
H642        H  0.98606662  0.26678461  0.38237844     0.30600
H643        H  0.99359420  0.23379736  0.32223726     0.33900
H644        H  0.97117349  0.23273007  0.30195972     0.30600
H645        H  0.93733624  0.33765281  0.33093719     0.38500
H646        H  0.93640132  0.32733142  0.35881483     0.34000
C647        C  0.87484912  0.15291978  0.39816924    -0.19800
C648        C  0.86896368  0.12893038  0.39447026     0.36400
C649        C  0.84602449  0.12311667  0.38636885    -0.25800
C650        C  0.82888554  0.14078699  0.38223892     0.02900
C651        C  0.83464985  0.16474609  0.38640917     0.27700
C652        C  0.85770913  0.17059975  0.39419236    -0.24900
N653        N  0.88651052  0.11070332  0.39814860    -0.82300
H654        H  0.84154433  0.10473458  0.38297382     0.13500
C655        C  0.80509761  0.13386252  0.37317791     0.02800
N656        N  0.81725165  0.18299235  0.38221000    -0.80800
H657        H  0.86246696  0.18903773  0.39690105     0.18300
C658        C  0.78477686  0.13858536  0.38694144    -0.25700
C659        C  0.76216171  0.13060522  0.37969911     0.36300
C660        C  0.75997233  0.11784395  0.35831035    -0.19700
C661        C  0.78008138  0.11414833  0.34397977    -0.25000
C662        C  0.80274180  0.12180639  0.35134771     0.27700
H663        H  0.78673083  0.14781951  0.40372951     0.13500
N664        N  0.74154036  0.13473599  0.39425756    -0.82200
H665        H  0.77818693  0.10436962  0.32749716     0.18300
N666        N  0.82344309  0.11703806  0.33704022    -0.80800
H667        H  0.74625022  0.14406336  0.40963172     0.34000
H668        H  0.72992008  0.14561958  0.38467742     0.38500
H669        H  0.81869117  0.10772068  0.32167373     0.33900
H670        H  0.83038162  0.13332693  0.33150250     0.30600
H671        H  0.82434809  0.19967748  0.38621294     0.33900
H672        H  0.81337123  0.18301844  0.36403449     0.30600
H673        H  0.90012789  0.11325810  0.38571954     0.38500
H674        H  0.87923691  0.09397974  0.39465962     0.34000
C675        C  0.03722283  0.33887593  0.66512289    -0.19800
C676        C  0.03780439  0.33908040  0.63997774     0.36400
C677        C  0.04580250  0.31887152  0.62779512    -0.25800
C678        C  0.05282221  0.29844583  0.64015346     0.02900
C679        C  0.05394696  0.29910506  0.66526754     0.27700
C680        C  0.04661820  0.31943537  0.67739451    -0.24900
N681        N  0.03006090  0.35916386  0.62631326    -0.82300
H682        H  0.04531490  0.31864096  0.60854524     0.13500
C683        C  0.05599421  0.27579728  0.62705499     0.02800
N684        N  0.06071966  0.27882630  0.67899563    -0.80800
H685        H  0.04623553  0.31924129  0.69665475     0.18300
C686        C  0.07823464  0.26465697  0.62705592    -0.25700
C687        C  0.08085108  0.24156221  0.61825862     0.36300
C688        C  0.06061298  0.22879184  0.61000734    -0.19700
C689        C  0.03874549  0.24083287  0.60807626    -0.25000
C690        C  0.03639984  0.26441616  0.61611180     0.27700
H691        H  0.09362794  0.27380503  0.63431020     0.13500
N692        N  0.10421551  0.23125480  0.61770440    -0.82200
H693        H  0.02334297  0.23172549  0.60085210     0.18300
N694        N  0.01426299  0.27691845  0.61323246    -0.80800
H695        H  0.11101826  0.23117089  0.63501144     0.34000
H696        H  0.11518593  0.24207748  0.60731506     0.38500
H697        H  0.00144716  0.26607087  0.60519440     0.33900
H698        H  0.00797561  0.28140335  0.63009001     0.30600
H699        H  0.07829628  0.27433588  0.67480205     0.33900
H700        H  0.04953475  0.26467228  0.67447769     0.30600
H701        H  0.02433192  0.37301584  0.63721668     0.38500
H702        H  0.01546561  0.35387345  0.61603402     0.34000
C703        C  0.10362027  0.15529414  0.62167524    -0.19800
C704        C  0.10244705  0.14592233  0.64477708     0.36400
C705        C  0.12359587  0.14302486  0.65788402    -0.25800
C706        C  0.14588227  0.14904508  0.64822727     0.02900
C707        C  0.14721976  0.15693970  0.62452690     0.27700
C708        C  0.12599174  0.16008876  0.61148406    -0.24900
N709        N  0.07966869  0.14085674  0.65533589    -0.82300
H710        H  0.12267349  0.13679026  0.67602398     0.13500
C711        C  0.16734973  0.14750182  0.66367066     0.02800
N712        N  0.16993933  0.16280787  0.61425026    -0.80800
H713        H  0.12675820  0.16783232  0.59388621     0.18300
C714        C  0.18421414  0.12972755  0.65914168    -0.25700
C715        C  0.20184044  0.12405859  0.67592528     0.36300
C716        C  0.20245202  0.13635875  0.69790369    -0.19700
C717        C  0.18731198  0.15584885  0.70122120    -0.25000
C718        C  0.16985803  0.16171626  0.68433048     0.27700
H719        H  0.18279914  0.11920934  0.64306761     0.13500
N720        N  0.21825177  0.10526340  0.67042087    -0.82200
H721        H  0.18785019  0.16550893  0.71787683     0.18300
N722        N  0.15446230  0.18153306  0.68922558    -0.80800
H723        H  0.20847758  0.08961563  0.66832833     0.34000
H724        H  0.23041866  0.10253368  0.68420544     0.38500
H725        H  0.16525557  0.19659674  0.69068359     0.33900
H726        H  0.14290447  0.18488660  0.67507788     0.30600
H727        H  0.16780124  0.16839791  0.59667053     0.33900
H728        H  0.17686601  0.17724660  0.62367729     0.30600
H729        H  0.07182011  0.12720861  0.64545334     0.38500
H730        H  0.08188596  0.13433971  0.67258291     0.34000
C731        C  0.93917340  0.22378312  0.62501523    -0.19800
C732        C  0.96386072  0.22524465  0.63009927     0.36400
C733        C  0.97284897  0.24550550  0.64170888    -0.25800
C734        C  0.95780902  0.26444477  0.64795700     0.02900
C735        C  0.93311652  0.26253079  0.64372193     0.27700
C736        C  0.92413433  0.24243789  0.63209590    -0.24900
N737        N  0.97965559  0.20616845  0.62380112    -0.82300
H738        H  0.99172458  0.24659543  0.64565772     0.13500
C739        C  0.96801762  0.28679257  0.65767241     0.02800
N740        N  0.91721148  0.28094029  0.65155979    -0.80800
H741        H  0.90515194  0.24138477  0.62856345     0.18300
C742        C  0.96352967  0.30814859  0.64564819    -0.25700
C743        C  0.97304815  0.32971710  0.65361363     0.36300
C744        C  0.98728708  0.32999475  0.67437689    -0.19700
C745        C  0.99133325  0.30876199  0.68670721    -0.25000
C746        C  0.98220356  0.28708480  0.67836770     0.27700
H747        H  0.95284044  0.30798417  0.62958456     0.13500
N748        N  0.96777667  0.35077848  0.64023256    -0.82200
H749        H  0.00211423  0.30908994  0.70269669     0.18300
N750        N  0.98736695  0.26542078  0.69074254    -0.80800
H751        H  0.97451096  0.34844754  0.62307862     0.34000
H752        H  0.97624245  0.36567492  0.64732214     0.38500
H753        H  0.99836516  0.26869419  0.70540841     0.33900
H754        H  0.97126634  0.25879929  0.69736318     0.30600
H755        H  0.89956278  0.27685443  0.64708906     0.33900
H756        H  0.91799821  0.28147049  0.67011924     0.30600
H757        H  0.97464714  0.19133612  0.63373760     0.38500
H758        H  0.99719023  0.21013937  0.62878062     0.34000
C759        C  0.86947523  0.17274266  0.61664021    -0.19800
C760        C  0.86462908  0.15202603  0.62971809     0.36400
C761        C  0.84258031  0.14969677  0.64149053    -0.25800
C762        C  0.82502053  0.16739354  0.64011809     0.02900
C763        C  0.82944296  0.18773453  0.62629554     0.27700
C764        C  0.85178185  0.19037617  0.61498796    -0.24900
N765        N  0.88279557  0.13429420  0.63249715    -0.82300
H766        H  0.83938354  0.13438502  0.65259409     0.13500
C767        C  0.80298258  0.16457038  0.65469095     0.02800
N768        N  0.81148082  0.20577473  0.62422828    -0.80800
H769        H  0.85567244  0.20651717  0.60530997     0.18300
C770        C  0.80071631  0.17715477  0.67613611    -0.25700
C771        C  0.78373089  0.17036236  0.69330208     0.36300
C772        C  0.76916123  0.15041033  0.68920243    -0.19700
C773        C  0.76968048  0.13956965  0.66668715    -0.25000
C774        C  0.78622431  0.14672285  0.64927227     0.27700
H775        H  0.81319431  0.19126887  0.68023347     0.13500
N776        N  0.78242913  0.18275585  0.71547614    -0.82200
H777        H  0.75807195  0.12458175  0.66322669     0.18300
N778        N  0.78671614  0.13539703  0.62640565    -0.80800
H779        H  0.79931360  0.18238970  0.72338251     0.34000
H780        H  0.77826357  0.20044499  0.71184944     0.38500
H781        H  0.77336900  0.12247896  0.62525768     0.33900
H782        H  0.78265717  0.14827317  0.61368662     0.30600
H783        H  0.81757996  0.21964861  0.61352349     0.33900
H784        H  0.79687545  0.19827082  0.61540413     0.30600
H785        H  0.88506431  0.12601284  0.61602415     0.38500
H786        H  0.87721506  0.12122497  0.64438657     0.34000
C787        C  0.93258416  0.99705001  0.62435185    -0.19800
C788        C  0.95346091  0.98441861  0.61790060     0.36400
C789        C  0.95742205  0.96164605  0.62753083    -0.25800
C790        C  0.94095568  0.95135164  0.64324795     0.02900
C791        C  0.91965870  0.96327296  0.64857739     0.27700
C792        C  0.91562469  0.98575993  0.63900054    -0.24900
N793        N  0.97091223  0.99488505  0.60243096    -0.82300
H794        H  0.97374368  0.95220006  0.62341969     0.13500
C795        C  0.94672405  0.92896083  0.65564390     0.02800
N796        N  0.90245887  0.95266268  0.66427972    -0.80800
H797        H  0.89919882  0.99473262  0.64364450     0.18300
C798        C  0.94954277  0.92949090  0.68039285    -0.25700
C799        C  0.95532096  0.90902436  0.69308878     0.36300
C800        C  0.95887639  0.88753029  0.68060892    -0.19700
C801        C  0.95442764  0.88661348  0.65609847    -0.25000
C802        C  0.94842199  0.90723420  0.64341450     0.27700
H803        H  0.94759527  0.94610535  0.68989936     0.13500
N804        N  0.95785111  0.91083766  0.71846844    -0.82200
H805        H  0.95688866  0.87002184  0.64670537     0.18300
N806        N  0.94443631  0.90632580  0.61820910    -0.80800
H807        H  0.97219811  0.92214574  0.72205171     0.34000
H808        H  0.96176384  0.89450566  0.72621578     0.38500
H809        H  0.94654095  0.88900621  0.61191194     0.33900
H810        H  0.92662704  0.91094216  0.61515465     0.30600
H811        H  0.88782946  0.96388389  0.66676629     0.33900
H812        H  0.89597681  0.93734813  0.65600535     0.30600
H813        H  0.96322941  0.99612408  0.58554635     0.38500
H814        H  0.98572233  0.98375752  0.60064492     0.34000
C815        C  0.88712143  0.06851238  0.63978059    -0.19800
C816        C  0.88854666  0.06970887  0.66472155     0.36400
C817        C  0.86832394  0.07628822  0.67783286    -0.25800
C818        C  0.84659018  0.08127350  0.66648381     0.02900
C819        C  0.84537818  0.08063566  0.64137724     0.27700
C820        C  0.86574725  0.07426673  0.62825374    -0.24900
N821        N  0.91043773  0.06365020  0.67659287    -0.82300
H822        H  0.86932966  0.07699963  0.69705014     0.13500
C823        C  0.82564816  0.08798619  0.68125443     0.02800
N824        N  0.82336770  0.08588398  0.62938667    -0.80800
H825        H  0.86470941  0.07286529  0.60907238     0.18300
C826        C  0.82811849  0.10729084  0.69681808    -0.25700
C827        C  0.80892160  0.11546064  0.71040715     0.36300
C828        C  0.78610345  0.10516006  0.70714331    -0.19700
C829        C  0.78386044  0.08494664  0.69278682    -0.25000
C830        C  0.80350635  0.07575757  0.68033305     0.27700
H831        H  0.84517406  0.11626020  0.69834358     0.13500
N832        N  0.81320764  0.13433101  0.72709137    -0.82200
H833        H  0.76658652  0.07649082  0.69087258     0.18300
N834        N  0.80025684  0.05413182  0.66711745    -0.80800
H835        H  0.82610185  0.12839895  0.73913114     0.34000
H836        H  0.79806475  0.13786932  0.73727143     0.38500
H837        H  0.79481859  0.04107845  0.67912706     0.33900
H838        H  0.81633101  0.04801318  0.66008982     0.30600
H839        H  0.82547708  0.08452852  0.61097908     0.33900
H840        H  0.81919168  0.10352484  0.63295708     0.30600
H841        H  0.92333579  0.07603574  0.67148010     0.38500
H842        H  0.90852257  0.06526245  0.69500193     0.34000
C843        C  0.17988597  0.09804890  0.72280166    -0.19800
C844        C  0.15813679  0.11046727  0.72579082     0.36400
C845        C  0.13829412  0.10402355  0.71204142    -0.25800
C846        C  0.13951661  0.08536996  0.69557743     0.02900
C847        C  0.16059839  0.07155703  0.69430596     0.27700
C848        C  0.18044689  0.07805369  0.70803294    -0.24900
N849        N  0.15582361  0.13021395  0.74180701    -0.82300
H850        H  0.12198812  0.11422201  0.71364650     0.13500
C851        C  0.11888690  0.08128553  0.67949363     0.02800
N852        N  0.16259135  0.05094230  0.67938592    -0.80800
H853        H  0.19693125  0.06819499  0.70610229     0.18300
C854        C  0.12152773  0.08489894  0.65492154    -0.25700
C855        C  0.10263031  0.08016112  0.63905715     0.36300
C856        C  0.08093480  0.07117757  0.64803803    -0.19700
C857        C  0.07799096  0.06882966  0.67269622    -0.25000
C858        C  0.09670776  0.07381786  0.68851714     0.27700
H859        H  0.13852244  0.09109265  0.64813936     0.13500
N860        N  0.10583815  0.08320896  0.61391723    -0.82200
H861        H  0.06128126  0.06198981  0.67955849     0.18300
N862        N  0.09357849  0.07047326  0.71363830    -0.80800
H863        H  0.12313839  0.08914098  0.61026907     0.34000
H864        H  0.09434609  0.09675600  0.60849095     0.38500
H865        H  0.07614396  0.06501586  0.71737944     0.33900
H866        H  0.10482201  0.05665069  0.71888340     0.30600
H867        H  0.17480628  0.05485205  0.66591464     0.33900
H868        H  0.14642634  0.04662851  0.67124446     0.30600
H869        H  0.17152393  0.13300932  0.75140925     0.38500
H870        H  0.14276820  0.12579082  0.75430517     0.34000
C871        C  0.03371588  0.00128046  0.63062124    -0.19800
C872        C  0.01467562  0.99698365  0.64634789     0.36400
C873        C  0.01123748  0.97401125  0.65536994    -0.25800
C874        C  0.02707780  0.95551812  0.64976593     0.02900
C875        C  0.04600646  0.95982114  0.63379728     0.27700
C876        C  0.04905531  0.98269471  0.62429864    -0.24900
N877        N  0.99968276  0.01620282  0.65399256    -0.82300
H878        H  0.99659324  0.97062442  0.66747689     0.13500
C879        C  0.02371861  0.93198335  0.66124601     0.02800
N880        N  0.06245715  0.94118357  0.62789586    -0.80800
H881        H  0.06403410  0.98631409  0.61267973     0.18300
C882        C  0.01987705  0.91195690  0.64685907    -0.25700
C883        C  0.01337026  0.89006467  0.65673149     0.36300
C884        C  0.00989977  0.88835203  0.68157284    -0.19700
C885        C  0.01553916  0.90774721  0.69605167    -0.25000
C886        C  0.02280694  0.92941374  0.68631880     0.27700
H887        H  0.02111740  0.91352885  0.62771049     0.13500
N888        N  0.01030122  0.87011661  0.64108222    -0.82200
H889        H  0.01333781  0.90632507  0.71513014     0.18300
N890        N  0.02873426  0.94836225  0.70243526    -0.80800
H891        H  0.99634820  0.87395323  0.62937774     0.34000
H892        H  0.00559224  0.85482958  0.65040843     0.38500
H893        H  0.04243827  0.94229147  0.71347910     0.33900
H894        H  0.03594584  0.96287461  0.69350544     0.30600
H895        H  0.07535454  0.94727804  0.61595198     0.33900
H896        H  0.07151309  0.93650624  0.64344718     0.30600
H897        H  0.99057850  0.02258059  0.63910609     0.38500
H898        H  0.98670440  0.01012308  0.66586061     0.34000
C899        C  0.39166026  0.14746626  0.14864764    -0.19800
C900        C  0.39454248  0.12561834  0.16058595     0.36400
C901        C  0.38608125  0.12320851  0.18387043    -0.25800
C902        C  0.37425409  0.14194921  0.19524937     0.02900
C903        C  0.37368154  0.16443154  0.18453957     0.27700
C904        C  0.38263416  0.16701878  0.16138657    -0.24900
N905        N  0.40411604  0.10512597  0.14899419    -0.82300
H906        H  0.38699386  0.10602658  0.19243103     0.13500
C907        C  0.35957366  0.13659423  0.21635782     0.02800
N908        N  0.36344767  0.18430793  0.19690090    -0.80800
H909        H  0.38089472  0.18399483  0.15256112     0.18300
C910        C  0.37015748  0.13579276  0.23888553    -0.25700
C911        C  0.35758897  0.12690510  0.25851075     0.36300
C912        C  0.33400429  0.11837643  0.25523856    -0.19700
C913        C  0.32292439  0.12086596  0.23306556    -0.25000
C914        C  0.33546803  0.12990636  0.21353766     0.27700
H915        H  0.38856508  0.14131174  0.24104379     0.13500
N916        N  0.36939523  0.12656219  0.28121993    -0.82200
H917        H  0.30477926  0.11459171  0.23074872     0.18300
N918        N  0.32430275  0.13096332  0.19053277    -0.80800
H919        H  0.38458618  0.11594117  0.27977552     0.34000
H920        H  0.35868460  0.11906810  0.29437186     0.38500
H921        H  0.30689137  0.12432190  0.19130212     0.33900
H922        H  0.32286800  0.14876019  0.18567984     0.30600
H923        H  0.36467330  0.19964493  0.18656230     0.33900
H924        H  0.34526402  0.18103983  0.19932591     0.30600
H925        H  0.42152171  0.10898294  0.14357253     0.38500
H926        H  0.39377177  0.10146320  0.13398086     0.34000
C927        C  0.25595353  0.25340443  0.04917867    -0.19800
C928        C  0.25424238  0.22870494  0.04461479     0.36400
C929        C  0.27360503  0.21397624  0.05001498    -0.25800
C930        C  0.29450177  0.22318833  0.06007513     0.02900
C931        C  0.29558505  0.24747258  0.06605202     0.27700
C932        C  0.27613766  0.26223090  0.06099720    -0.24900
N933        N  0.23365993  0.21821972  0.03348264    -0.82300
H934        H  0.27248509  0.19520945  0.04598487     0.13500
C935        C  0.31414448  0.20672089  0.06602219     0.02800
N936        N  0.31644940  0.25765694  0.07667362    -0.80800
H937        H  0.27761781  0.28107291  0.06448847     0.18300
C938        C  0.33470272  0.20561801  0.05178433    -0.25700
C939        C  0.35367669  0.19018302  0.05751991     0.36300
C940        C  0.35188620  0.17579053  0.07798238    -0.19700
C941        C  0.33083429  0.17653902  0.09160653    -0.25000
C942        C  0.31207603  0.19188418  0.08591753     0.27700
H943        H  0.33602263  0.21704545  0.03638257     0.13500
N944        N  0.37505211  0.19005753  0.04342479    -0.82200
H945        H  0.32922856  0.16546949  0.10724958     0.18300
N946        N  0.29098558  0.19273930  0.10045201    -0.80800
H947        H  0.37374023  0.20236386  0.02960974     0.34000
H948        H  0.37634324  0.17342961  0.03534088     0.38500
H949        H  0.29217682  0.18057641  0.11440120     0.33900
H950        H  0.29018685  0.20956670  0.10822704     0.30600
H951        H  0.33084175  0.25503550  0.06516150     0.33900
H952        H  0.31996784  0.24868763  0.09253265     0.30600
H953        H  0.22016428  0.23070891  0.03095159     0.38500
H954        H  0.22672786  0.20563898  0.04522789     0.34000
C955        C  0.37824263  0.03222251  0.13930818    -0.19800
C956        C  0.37730481  0.01573071  0.15817897     0.36400
C957        C  0.36747589  0.02258365  0.18014324    -0.25800
C958        C  0.35816016  0.04539442  0.18352857     0.02900
C959        C  0.35901261  0.06184426  0.16447807     0.27700
C960        C  0.36917853  0.05506013  0.14275399    -0.24900
N961        N  0.38628451  0.99208430  0.15495175    -0.82300
H962        H  0.36684934  0.01001005  0.19467201     0.13500
C963        C  0.34805766  0.05158861  0.20717452     0.02800
N964        N  0.34994558  0.08555927  0.16646307    -0.80800
H965        H  0.36922644  0.06751190  0.12811914     0.18300
C966        C  0.36359656  0.05519010  0.22640249    -0.25700
C967        C  0.35506655  0.06269796  0.24862181     0.36300
C968        C  0.33039475  0.06721541  0.25152893    -0.19700
C969        C  0.31468508  0.06196460  0.23279778    -0.25000
C970        C  0.32323874  0.05392979  0.21069375     0.27700
H971        H  0.38259755  0.05252370  0.22399922     0.13500
N972        N  0.37187632  0.06529458  0.26774592    -0.82200
H973        H  0.29574642  0.06505434  0.23516586     0.18300
N974        N  0.30686129  0.04796251  0.19192824    -0.80800
H975        H  0.38412989  0.07836888  0.26287986     0.34000
H976        H  0.36360199  0.07087993  0.28338997     0.38500
H977        H  0.28923928  0.04981979  0.19773297     0.33900
H978        H  0.30914732  0.06017129  0.17819594     0.30600
H979        H  0.33564160  0.08725220  0.15465071     0.33900
H980        H  0.34340401  0.08897391  0.18343225     0.30600
H981        H  0.40465823  0.99332774  0.15198002     0.38500
H982        H  0.38404624  0.98209863  0.17042943     0.34000
C983        C  0.37535428  0.97515388  0.07445647    -0.19800
C984        C  0.37558516  0.95478195  0.08892060     0.36400
C985        C  0.36487668  0.93382467  0.08094516    -0.25800
C986        C  0.35350279  0.93272097  0.05879158     0.02900
C987        C  0.35236751  0.95342036  0.04457288     0.27700
C988        C  0.36388379  0.97427856  0.05232629    -0.24900
N989        N  0.38681632  0.95527775  0.11178918    -0.82300
H990        H  0.36524126  0.91833287  0.09230519     0.13500
C991        C  0.34321775  0.90969855  0.05080234     0.02800
N992        N  0.33894843  0.95347127  0.02278170    -0.80800
H993        H  0.36302905  0.99017267  0.04156864     0.18300
C994        C  0.31912571  0.90853387  0.04400527    -0.25700
C995        C  0.30920499  0.88740027  0.03518425     0.36300
C996        C  0.32373103  0.86717901  0.03290175    -0.19700
C997        C  0.34740054  0.86785725  0.04079930    -0.25000
C998        C  0.35730724  0.88886795  0.04994858     0.27700
H999        H  0.30807732  0.92421831  0.04544874     0.13500
N1000       N  0.28468273  0.88655959  0.02770217    -0.82200
H1001       H  0.35830477  0.85208624  0.03924584     0.18300
N1002       N  0.38163171  0.88913652  0.05816531    -0.80800
H1003       H  0.27658044  0.90309110  0.03000203     0.34000
H1004       H  0.27574102  0.87479144  0.03893798     0.38500
H1005       H  0.38941363  0.87240265  0.05626224     0.33900
H1006       H  0.39136355  0.90069691  0.04741691     0.30600
H1007       H  0.33978216  0.97009372  0.01463066     0.33900
H1008       H  0.34687444  0.94149472  0.01111121     0.30600
H1009       H  0.37399364  0.95083712  0.12452266     0.38500
H1010       H  0.40007197  0.94225070  0.11207266     0.34000
C1011       C  0.35762870  0.04373829  0.92864290    -0.19800
C1012       C  0.33908601  0.03082974  0.91708665     0.36400
C1013       C  0.32580222  0.04163885  0.89888029    -0.25800
C1014       C  0.32963567  0.06529941  0.89261068     0.02900
C1015       C  0.34548459  0.07913060  0.90632095     0.27700
C1016       C  0.35978835  0.06811540  0.92377902    -0.24900
N1017       N  0.33394080  0.00668564  0.92349939    -0.82300
H1018       H  0.31271850  0.03138051  0.88906670     0.13500
C1019       C  0.31837062  0.07463851  0.87054988     0.02800
N1020       N  0.34750265  0.10413014  0.90201764    -0.80800
H1021       H  0.37315906  0.07850155  0.93303070     0.18300
C1022       C  0.29943390  0.09085667  0.87190582    -0.25700
C1023       C  0.28896772  0.10033082  0.85125715     0.36300
C1024       C  0.29756129  0.09319367  0.82863310    -0.19700
C1025       C  0.31630454  0.07680473  0.82736848    -0.25000
C1026       C  0.32662529  0.06739352  0.84793789     0.27700
H1027       H  0.29279675  0.09629885  0.88914769     0.13500
N1028       N  0.26996261  0.11723007  0.85402431    -0.82200
H1029       H  0.32310758  0.07140634  0.81016998     0.18300
N1030       N  0.34570865  0.05068764  0.84534789    -0.80800
H1031       H  0.27695634  0.13201234  0.86285037     0.34000
H1032       H  0.26364362  0.12323560  0.83766548     0.38500
H1033       H  0.34043584  0.03460034  0.85286626     0.33900
H1034       H  0.36058709  0.05692949  0.85465389     0.30600
H1035       H  0.35912462  0.11174831  0.91438367     0.33900
H1036       H  0.33088379  0.11177211  0.90544627     0.30600
H1037       H  0.32013470  0.99978360  0.91305485     0.38500
H1038       H  0.32770268  0.00678502  0.94100580     0.34000
C1039       C  0.33344536  0.86098167  0.98302836    -0.19800
C1040       C  0.35865016  0.85927404  0.98137165     0.36400
C1041       C  0.37189528  0.87891947  0.97342410    -0.25800
C1042       C  0.36069035  0.90041103  0.96765716     0.02900
C1043       C  0.33540952  0.90152073  0.96818156     0.27700
C1044       C  0.32219225  0.88185671  0.97563968    -0.24900
N1045       N  0.37141468  0.83822713  0.98810473    -0.82300
H1046       H  0.39115957  0.87761701  0.97251170     0.13500
C1047       C  0.37524146  0.92208917  0.96295294     0.02800
N1048       N  0.32263385  0.92273301  0.96235721    -0.80800
H1049       H  0.30295866  0.88337328  0.97705542     0.18300
C1050       C  0.37331043  0.93332507  0.94086773    -0.25700
C1051       C  0.38159741  0.95662723  0.93760441     0.36300
C1052       C  0.39162788  0.96918170  0.95703266    -0.19700
C1053       C  0.39629146  0.95687143  0.97819091    -0.25000
C1054       C  0.38855140  0.93337383  0.98117239     0.27700
H1055       H  0.36427617  0.92427107  0.92643939     0.13500
N1056       N  0.37907755  0.96791333  0.91484895    -0.82200
H1057       H  0.40461512  0.96595215  0.99302193     0.18300
N1058       N  0.39355760  0.92180404  0.00323543    -0.80800
H1059       H  0.37111607  0.95641667  0.90258811     0.34000
H1060       H  0.39624075  0.97150532  0.90851934     0.38500
H1061       H  0.40435721  0.90712193  0.99977575     0.33900
H1062       H  0.37756399  0.91571186  0.01046621     0.30600
H1063       H  0.32569349  0.92684899  0.94454088     0.33900
H1064       H  0.32897780  0.93661342  0.97292210     0.30600
H1065       H  0.35984839  0.82480679  0.99360598     0.38500
H1066       H  0.38222100  0.84249634  0.00265226     0.34000
C1067       C  0.26300365  0.26137902  0.99958865    -0.19800
C1068       C  0.28717610  0.26779223  0.00321983     0.36400
C1069       C  0.30518161  0.25177754  0.99701272    -0.25800
C1070       C  0.29985854  0.22987844  0.98637774     0.02900
C1071       C  0.27580230  0.22462897  0.98041954     0.27700
C1072       C  0.25769796  0.24035550  0.98739181    -0.24900
N1073       N  0.29407498  0.29030556  0.01312775    -0.82300
H1074       H  0.32357730  0.25634357  0.00089291     0.13500
C1075       C  0.31996467  0.21341662  0.98130388     0.02800
N1076       N  0.26899374  0.20363367  0.96755014    -0.80800
H1077       H  0.23922115  0.23555447  0.98427294     0.18300
C1078       C  0.32079521  0.19087808  0.99200052    -0.25700
C1079       C  0.33960207  0.17494222  0.98707934     0.36300
C1080       C  0.35809281  0.18203651  0.97163172    -0.19700
C1081       C  0.35757867  0.20488249  0.96177275    -0.25000
C1082       C  0.33864213  0.22047793  0.96616142     0.27700
H1083       H  0.30647423  0.18559422  0.00379878     0.13500
N1084       N  0.33915765  0.15125762  0.99642771    -0.82200
H1085       H  0.37166737  0.21025471  0.94973266     0.18300
N1086       N  0.33794104  0.24326284  0.95475221    -0.80800
H1087       H  0.32390696  0.14867804  0.00680740     0.34000
H1088       H  0.35376797  0.14939688  0.00780833     0.38500
H1089       H  0.35305370  0.24576759  0.94416070     0.33900
H1090       H  0.32323444  0.24335160  0.94329951     0.30600
H1091       H  0.26059310  0.20910057  0.95189113     0.33900
H1092       H  0.28382346  0.19386440  0.96216575     0.30600
H1093       H  0.27926903  0.30076819  0.01718873     0.38500
H1094       H  0.30334494  0.28724215  0.02894077     0.34000
C1095       C  0.39687510  0.15035415  0.90161395    -0.19800
C1096       C  0.39153155  0.17080181  0.88830352     0.36400
C1097       C  0.38249558  0.16854772  0.86519203    -0.25800
C1098       C  0.37802358  0.14607834  0.85543675     0.02900
C1099       C  0.38719594  0.12584566  0.86715829     0.27700
C1100       C  0.39706331  0.12829227  0.89011531    -0.24900
N1101       N  0.39382385  0.19382580  0.89884320    -0.82300
H1102       H  0.37648427  0.18427600  0.85591664     0.13500
C1103       C  0.35928544  0.14373192  0.83671172     0.02800
N1104       N  0.38449035  0.10273167  0.85674543    -0.80800
H1105       H  0.40190372  0.11258895  0.90008199     0.18300
C1106       C  0.36360285  0.13076418  0.81578786    -0.25700
C1107       C  0.34469941  0.12464272  0.80033893     0.36300
C1108       C  0.32135111  0.13233708  0.80559391    -0.19700
C1109       C  0.31750351  0.14710727  0.82517976    -0.25000
C1110       C  0.33594006  0.15220725  0.84123983     0.27700
H1111       H  0.38144881  0.12428744  0.81225617     0.13500
N1112       N  0.34877801  0.10940771  0.78027901    -0.82200
H1113       H  0.29948144  0.15280802  0.82914871     0.18300
N1114       N  0.33062750  0.16450162  0.86302001    -0.80800
H1115       H  0.36683275  0.10486980  0.77915207     0.34000
H1116       H  0.34474200  0.11907753  0.76496504     0.38500
H1117       H  0.31267109  0.16950115  0.86358078     0.33900
H1118       H  0.33316503  0.15255877  0.87699164     0.30600
H1119       H  0.39183452  0.08976304  0.86780335     0.33900
H1120       H  0.36623015  0.09916536  0.85567187     0.30600
H1121       H  0.37709173  0.20201634  0.89850988     0.38500
H1122       H  0.40543768  0.20380984  0.88831229     0.34000
C1123       C  0.59543250  0.20665701  0.07822754    -0.19800
C1124       C  0.58049744  0.22652179  0.07582800     0.36400
C1125       C  0.59056625  0.24900096  0.07136611    -0.25800
C1126       C  0.61540317  0.25181761  0.06853178     0.02900
C1127       C  0.63018225  0.23148449  0.07040150     0.27700
C1128       C  0.62004645  0.20933044  0.07543663    -0.24900
N1129       N  0.55522721  0.22403524  0.07864808    -0.82300
H1130       H  0.57893809  0.26426630  0.07090091     0.13500
C1131       C  0.62633896  0.27563020  0.06366517     0.02800
N1132       N  0.65555547  0.23337635  0.06722889    -0.80800
H1133       H  0.63149253  0.19398296  0.07749219     0.18300
C1134       C  0.64624640  0.28271060  0.07727698    -0.25700
C1135       C  0.66171900  0.30076198  0.06945762     0.36300
C1136       C  0.65650076  0.31289995  0.04827458    -0.19700
C1137       C  0.63479460  0.30833825  0.03665257    -0.25000
C1138       C  0.61992259  0.28964263  0.04373170     0.27700
H1139       H  0.65082200  0.27276918  0.09309447     0.13500
N1140       N  0.68361185  0.30551381  0.08189950    -0.82200
H1141       H  0.63035131  0.31813532  0.02070782     0.18300
N1142       N  0.59937773  0.28464704  0.02939684    -0.80800
H1143       H  0.68531982  0.29431478  0.09658774     0.34000
H1144       H  0.68258326  0.32277482  0.08858569     0.38500
H1145       H  0.59991252  0.26703370  0.02375054     0.33900
H1146       H  0.58403679  0.28740844  0.03951137     0.30600
H1147       H  0.66378131  0.21684057  0.06896611     0.33900
H1148       H  0.65846376  0.23885777  0.04981242     0.30600
H1149       H  0.54982525  0.23513572  0.09252366     0.38500
H1150       H  0.54705133  0.22995135  0.06303916     0.34000
C1151       C  0.59659581  0.14724606  0.14088226    -0.19800
C1152       C  0.58452650  0.13093435  0.15569106     0.36400
C1153       C  0.59433275  0.12515262  0.17804410    -0.25800
C1154       C  0.61542208  0.13597111  0.18637380     0.02900
C1155       C  0.62707036  0.15266189  0.17174610     0.27700
C1156       C  0.61778684  0.15775795  0.14919478    -0.24900
N1157       N  0.56223295  0.12064554  0.14831149    -0.82300
H1158       H  0.58550897  0.11203715  0.18898554     0.13500
C1159       C  0.62561966  0.12922856  0.21000045     0.02800
N1160       N  0.64818981  0.16467387  0.17994270    -0.80800
H1161       H  0.62722095  0.17030241  0.13807149     0.18300
C1162       C  0.64998453  0.12337333  0.21166602    -0.25700
C1163       C  0.66025581  0.11661141  0.23323646     0.36300
C1164       C  0.64591053  0.11472892  0.25367077    -0.19700
C1165       C  0.62183271  0.12140338  0.25245182    -0.25000
C1166       C  0.61147185  0.12855070  0.23080585     0.27700
H1167       H  0.66111306  0.12357793  0.19593964     0.13500
N1168       N  0.68530215  0.11160343  0.23389881    -0.82200
H1169       H  0.61092359  0.12023574  0.26829207     0.18300
N1170       N  0.58666583  0.13495166  0.22987939    -0.80800
H1171       H  0.68773709  0.09433969  0.24004649     0.34000
H1172       H  0.69328904  0.12320112  0.24603537     0.38500
H1173       H  0.57876239  0.13315633  0.24660363     0.33900
H1174       H  0.58571159  0.15290886  0.22542730     0.30600
H1175       H  0.65470392  0.17624463  0.16697681     0.33900
H1176       H  0.64335549  0.17510468  0.19452975     0.30600
H1177       H  0.54971946  0.13435169  0.14727617     0.38500
H1178       H  0.55590076  0.10883713  0.16115549     0.34000
C1179       C  0.68097294  0.29375554  0.00728314    -0.19800
C1180       C  0.69184743  0.27319388  0.01679767     0.36400
C1181       C  0.68225047  0.25087662  0.01130652    -0.25800
C1182       C  0.66150389  0.24887094  0.99754082     0.02900
C1183       C  0.65157909  0.26921078  0.98693436     0.27700
C1184       C  0.66186135  0.29143720  0.99140810    -0.24900
N1185       N  0.71212079  0.27430867  0.03244276    -0.82300
H1186       H  0.69021948  0.23511669  0.01891655     0.13500
C1187       C  0.64951932  0.22566259  0.99486330     0.02800
N1188       N  0.63049256  0.26725426  0.97249165    -0.80800
H1189       H  0.65379283  0.30723726  0.98398747     0.18300
C1190       C  0.62854430  0.22125237  0.00770422    -0.25700
C1191       C  0.61376338  0.20181795  0.00223786     0.36300
C1192       C  0.62040562  0.18640586  0.98362986    -0.19700
C1193       C  0.64258840  0.18976801  0.97229689    -0.25000
C1194       C  0.65714321  0.20933654  0.97764115     0.27700
H1195       H  0.62300994  0.23383574  0.02104802     0.13500
N1196       N  0.59140728  0.19874665  0.01435660    -0.82200
H1197       H  0.64783893  0.17790172  0.95807034     0.18300
N1198       N  0.67906745  0.21326130  0.96497104    -0.80800
H1199       H  0.58940541  0.21163335  0.02754988     0.34000
H1200       H  0.57774984  0.20179362  0.00207280     0.38500
H1201       H  0.68215061  0.19951432  0.95288019     0.33900
H1202       H  0.67709488  0.22872675  0.95494547     0.30600
H1203       H  0.62511909  0.28394824  0.96647695     0.33900
H1204       H  0.63493082  0.25734165  0.95742478     0.30600
H1205       H  0.71816525  0.29166944  0.03471237     0.38500
H1206       H  0.70661321  0.26827784  0.04912046     0.34000
C1207       C  0.65669533  0.14555264  0.80521859    -0.19800
C1208       C  0.66406311  0.15476840  0.82727367     0.36400
C1209       C  0.64708307  0.15880548  0.84518357    -0.25800
C1210       C  0.62260020  0.15451428  0.84143776     0.02900
C1211       C  0.61495604  0.14756335  0.81839898     0.27700
C1212       C  0.63216218  0.14269983  0.80075514    -0.24900
N1213       N  0.68902572  0.15855049  0.83182750    -0.82300
H1214       H  0.65312666  0.16456696  0.86255749     0.13500
C1215       C  0.60632284  0.15722760  0.86238972     0.02800
N1216       N  0.59014882  0.14515302  0.81228213    -0.80800
H1217       H  0.62639716  0.13563233  0.78378068     0.18300
C1218       C  0.60723269  0.17849405  0.87522657    -0.25700
C1219       C  0.59768157  0.18017677  0.89820328     0.36300
C1220       C  0.58752441  0.15987351  0.90905405    -0.19700
C1221       C  0.58378739  0.13953075  0.89516080    -0.25000
C1222       C  0.59297508  0.13812775  0.87184105     0.27700
H1223       H  0.61665196  0.19351919  0.86774984     0.13500
N1224       N  0.59943480  0.20214616  0.91111141    -0.82200
H1225       H  0.57545926  0.12404880  0.90296589     0.18300
N1226       N  0.58947685  0.11697927  0.85824807    -0.80800
H1227       H  0.60774336  0.21518168  0.90083162     0.34000
H1228       H  0.58206398  0.20805242  0.91438403     0.38500
H1229       H  0.59566416  0.10264372  0.86814619     0.33900
H1230       H  0.57110759  0.11463060  0.85595777     0.30600
H1231       H  0.58674351  0.15671026  0.79817707     0.33900
H1232       H  0.57919487  0.15089816  0.82611809     0.30600
H1233       H  0.69488214  0.17181070  0.82025104     0.38500
H1234       H  0.69164209  0.16499334  0.84906253     0.34000
C1235       C  0.60122338  0.98184666  0.96506609    -0.19800
C1236       C  0.59348984  0.96279326  0.95076208     0.36400
C1237       C  0.60216809  0.93982098  0.95537345    -0.25800
C1238       C  0.61893591  0.93587888  0.97351057     0.02900
C1239       C  0.62695226  0.95523128  0.98729286     0.27700
C1240       C  0.61784408  0.97794073  0.98314125    -0.24900
N1241       N  0.57684535  0.96686854  0.93175093    -0.82300
H1242       H  0.59621704  0.92504412  0.94456422     0.13500
C1243       C  0.62809229  0.91159714  0.97813973     0.02800
N1244       N  0.64428609  0.95187313  0.00566794    -0.80800
H1245       H  0.62416056  0.99270083  0.99379531     0.18300
C1246       C  0.65277453  0.90743531  0.97690499    -0.25700
C1247       C  0.66259399  0.88580469  0.98445865     0.36300
C1248       C  0.64744326  0.86820900  0.99375128    -0.19700
C1249       C  0.62264111  0.87160708  0.99330181    -0.25000
C1250       C  0.61273849  0.89309418  0.98536299     0.27700
H1251       H  0.66446472  0.92143566  0.97071954     0.13500
N1252       N  0.68796260  0.88211908  0.98398213    -0.82200
H1253       H  0.61107819  0.85781686  0.00014901     0.18300
N1254       N  0.58727701  0.89631554  0.98508859    -0.80800
H1255       H  0.69665056  0.89711112  0.97732474     0.34000
H1256       H  0.69134927  0.86840251  0.97194477     0.38500
H1257       H  0.57862576  0.88098215  0.99097264     0.33900
H1258       H  0.58298028  0.90971391  0.99714663     0.30600
H1259       H  0.63705552  0.95831345  0.02151819     0.33900
H1260       H  0.65918892  0.96226927  0.00161468     0.30600
H1261       H  0.58529994  0.97758329  0.91915998     0.38500
H1262       H  0.57271872  0.95094059  0.92315004     0.34000
C1263       C  0.67176230  0.09814077  0.81507123    -0.19800
C1264       C  0.68368873  0.09695344  0.83710739     0.36400
C1265       C  0.67145584  0.08826912  0.85713598    -0.25800
C1266       C  0.64774436  0.08044837  0.85532373     0.02900
C1267       C  0.63618645  0.08103265  0.83307407     0.27700
C1268       C  0.64833413  0.08965507  0.81314242    -0.24900
N1269       N  0.70782653  0.10533823  0.83918954    -0.82300
H1270       H  0.68043199  0.08744753  0.87417515     0.13500
C1271       C  0.63568125  0.07038917  0.87650742     0.02800
N1272       N  0.61208511  0.07288333  0.83068819    -0.80800
H1273       H  0.63912156  0.09060148  0.79622818     0.18300
C1274       C  0.62980515  0.08536873  0.89566666    -0.25700
C1275       C  0.61738050  0.07670548  0.91569964     0.36300
C1276       C  0.61117016  0.05244065  0.91668486    -0.19700
C1277       C  0.61735281  0.03762882  0.89754121    -0.25000
C1278       C  0.62966083  0.04608062  0.87772680     0.27700
H1279       H  0.63456654  0.10397602  0.89474478     0.13500
N1280       N  0.61138103  0.09233789  0.93497549    -0.82200
H1281       H  0.61272502  0.01897305  0.89796856     0.18300
N1282       N  0.63592260  0.02929095  0.85946497    -0.80800
H1283       H  0.61690617  0.10964924  0.93124101     0.34000
H1284       H  0.62103603  0.08686273  0.94989097     0.38500
H1285       H  0.64680436  0.01639704  0.86723340     0.33900
H1286       H  0.64619870  0.03692150  0.84607654     0.30600
H1287       H  0.60194346  0.08665823  0.82347454     0.33900
H1288       H  0.61195589  0.05892005  0.81845653     0.30600
H1289       H  0.71861940  0.09407789  0.82909028     0.38500
H1290       H  0.71375606  0.10391516  0.85674835     0.34000
C1291       C  0.63991528  0.06448722  0.26146238    -0.19800
C1292       C  0.65309857  0.05140856  0.24470185     0.36400
C1293       C  0.64220325  0.04433769  0.22334396    -0.25800
C1294       C  0.61833937  0.05022817  0.21856395     0.02900
C1295       C  0.60449554  0.06091236  0.23657203     0.27700
C1296       C  0.61528916  0.06744966  0.25804171    -0.24900
N1297       N  0.67778242  0.04627378  0.24883127    -0.82300
H1298       H  0.65274527  0.03539751  0.20991682     0.13500
C1299       C  0.60871422  0.04667028  0.19425672     0.02800
N1300       N  0.57987543  0.06665313  0.23293679    -0.80800
H1301       H  0.60488100  0.07689478  0.27121441     0.18300
C1302       C  0.59318457  0.02772686  0.18974060    -0.25700
C1303       C  0.58459281  0.02337496  0.16664160     0.36300
C1304       C  0.59137060  0.03851307  0.14787037    -0.19700
C1305       C  0.60602461  0.05807590  0.15257951    -0.25000
C1306       C  0.61518004  0.06203623  0.17553575     0.27700
H1307       H  0.58825703  0.01600142  0.20416280     0.13500
N1308       N  0.56942056  0.00334354  0.16198392    -0.82200
H1309       H  0.61148014  0.06942918  0.13804180     0.18300
N1310       N  0.63134837  0.08133792  0.17982095    -0.80800
H1311       H  0.56624463  0.99385519  0.17761366     0.34000
H1312       H  0.55291044  0.00987870  0.15633005     0.38500
H1313       H  0.64797276  0.07417448  0.18417514     0.33900
H1314       H  0.63391058  0.09120454  0.16431606     0.30600
H1315       H  0.57060245  0.05099768  0.22923016     0.33900
H1316       H  0.57858664  0.07780788  0.21817830     0.30600
H1317       H  0.68766932  0.05302958  0.23462968     0.38500
H1318       H  0.67980730  0.02785303  0.24870935     0.34000
C1319       C  0.60501521  0.98145761  0.08396733    -0.19800
C1320       C  0.62558266  0.97186305  0.09512005     0.36400
C1321       C  0.63390360  0.94926865  0.08842254    -0.25800
C1322       C  0.62275996  0.93620138  0.07030566     0.02900
C1323       C  0.60260462  0.94600990  0.05880004     0.27700
C1324       C  0.59398041  0.96840805  0.06575400    -0.24900
N1325       N  0.63818714  0.98512918  0.11301859    -0.82300
H1326       H  0.64928133  0.94181093  0.09737350     0.13500
C1327       C  0.63266870  0.91261772  0.06305134     0.02800
N1328       N  0.59100359  0.93322897  0.03995577    -0.80800
H1329       H  0.57825715  0.97551107  0.05711743     0.18300
C1330       C  0.61752522  0.89272797  0.06210137    -0.25700
C1331       C  0.62547598  0.87078971  0.05329945     0.36300
C1332       C  0.64922736  0.86863711  0.04503781    -0.19700
C1333       C  0.66476104  0.88801811  0.04728653    -0.25000
C1334       C  0.65684652  0.90992632  0.05630166     0.27700
H1335       H  0.59914915  0.89437393  0.06785907     0.13500
N1336       N  0.60870435  0.85150921  0.05217758    -0.82200
H1337       H  0.68297244  0.88627257  0.04104937     0.18300
N1338       N  0.67321878  0.92948848  0.05818337    -0.80800
H1339       H  0.60365969  0.84749951  0.06959670     0.34000
H1340       H  0.61649253  0.83617729  0.04529003     0.38500
H1341       H  0.69027236  0.92449496  0.05256011     0.33900
H1342       H  0.66751753  0.94279011  0.04664554     0.30600
H1343       H  0.57673194  0.94298333  0.03306936     0.33900
H1344       H  0.60334459  0.93132985  0.02621387     0.30600
H1345       H  0.64527039  0.00020769  0.10484616     0.38500
H1346       H  0.65270278  0.97547321  0.11953514     0.34000
C1347       C  0.04101891  0.51581355  0.13591445    -0.19800
C1348       C  0.06055480  0.51163944  0.15115580     0.36400
C1349       C  0.05664169  0.50292873  0.17413272    -0.25800
C1350       C  0.03346282  0.49785506  0.18201161     0.02900
C1351       C  0.01380900  0.50550913  0.16819602     0.27700
C1352       C  0.01784891  0.51475411  0.14527258    -0.24900
N1353       N  0.08447255  0.51479756  0.14275369    -0.82300
H1354       H  0.07183238  0.49796293  0.18497291     0.13500
C1355       C  0.03019375  0.48050102  0.20168897     0.02800
N1356       N  0.98984697  0.50231903  0.17673016    -0.80800
H1357       H  0.00279342  0.51872985  0.13391190     0.18300
C1358       C  0.01533797  0.48585492  0.22103689    -0.25700
C1359       C  0.00824932  0.46816546  0.23710575     0.36300
C1360       C  0.01696404  0.44474802  0.23420012    -0.19700
C1361       C  0.03372883  0.44005193  0.21642748    -0.25000
C1362       C  0.03973249  0.45736323  0.19958257     0.27700
H1363       H  0.00807294  0.50356168  0.22285123     0.13500
N1364       N  0.99128308  0.47430425  0.25525674    -0.82200
H1365       H  0.04011820  0.42206416  0.21413555     0.18300
N1366       N  0.05400282  0.45100014  0.17931872    -0.80800
H1367       H  0.99923155  0.48710370  0.26614933     0.34000
H1368       H  0.98752550  0.45985838  0.26620439     0.38500
H1369       H  0.05947512  0.43331925  0.18039819     0.33900
H1370       H  0.04311901  0.45220987  0.16425868     0.30600
H1371       H  0.97748556  0.50858877  0.16431690     0.33900
H1372       H  0.98680048  0.48413963  0.17841049     0.30600
H1373       H  0.09302459  0.52689512  0.15399497     0.38500
H1374       H  0.09335921  0.49856365  0.14412562     0.34000
C1375       C  0.15128855  0.37419800  0.04674341    -0.19800
C1376       C  0.12921470  0.37164246  0.05870934     0.36400
C1377       C  0.11572251  0.39196393  0.06401382    -0.25800
C1378       C  0.12347699  0.41470070  0.05731890     0.02900
C1379       C  0.14626639  0.41730766  0.04696306     0.27700
C1380       C  0.16013866  0.39708348  0.04243448    -0.24900
N1381       N  0.11977954  0.34892632  0.06546998    -0.82300
H1382       H  0.09866007  0.38991920  0.07283375     0.13500
C1383       C  0.10755653  0.43555757  0.06105170     0.02800
N1384       N  0.15482796  0.44034458  0.04011597    -0.80800
H1385       H  0.17724670  0.39903532  0.03367988     0.18300
C1386       C  0.11594850  0.45491490  0.07432130    -0.25700
C1387       C  0.10141420  0.47471515  0.07865988     0.36300
C1388       C  0.07794491  0.47526798  0.06953023    -0.19700
C1389       C  0.06969971  0.45633172  0.05560733    -0.25000
C1390       C  0.08421190  0.43633357  0.05143345     0.27700
H1391       H  0.13378408  0.45434618  0.08175583     0.13500
N1392       N  0.11023728  0.49420087  0.09265305    -0.82200
H1393       H  0.05155516  0.45666458  0.04893656     0.18300
N1394       N  0.07512602  0.41657198  0.03802299    -0.80800
H1395       H  0.12776270  0.49102804  0.09818834     0.34000
H1396       H  0.11078258  0.50913106  0.08168044     0.38500
H1397       H  0.05788139  0.42010564  0.03187131     0.33900
H1398       H  0.08586151  0.41440680  0.02303261     0.30600
H1399       H  0.17187247  0.43913075  0.03266258     0.33900
H1400       H  0.14359819  0.44670231  0.02673691     0.30600
H1401       H  0.13093267  0.33511168  0.06019214     0.38500
H1402       H  0.10353560  0.34650890  0.05666754     0.34000
C1403       C  0.14699584  0.36819246  0.99601486    -0.19800
C1404       C  0.12215540  0.36399234  0.99405872     0.36400
C1405       C  0.10729110  0.38187316  0.98514125    -0.25800
C1406       C  0.11658054  0.40383904  0.97810530     0.02900
C1407       C  0.14149469  0.40745041  0.97843703     0.27700
C1408       C  0.15651041  0.38947956  0.98724066    -0.24900
N1409       N  0.11138665  0.34193280  0.00102459    -0.82300
H1410       H  0.08819876  0.37885834  0.98438525     0.13500
C1411       C  0.09995773  0.42306842  0.97094332     0.02800
N1412       N  0.15132836  0.42952737  0.97029243    -0.80800
H1413       H  0.17555857  0.39257900  0.98852825     0.18300
C1414       C  0.09816513  0.44352887  0.98506537    -0.25700
C1415       C  0.08291446  0.46233657  0.97875808     0.36300
C1416       C  0.06989281  0.46101346  0.95730056    -0.19700
C1417       C  0.07105280  0.44004504  0.94368687    -0.25000
C1418       C  0.08584592  0.42105526  0.95033990     0.27700
H1419       H  0.10878714  0.44481925  0.00108825     0.13500
N1420       N  0.08156376  0.48312218  0.99348357    -0.82200
H1421       H  0.06096323  0.43879655  0.92728961     0.18300
N1422       N  0.08715378  0.40003975  0.93590498    -0.80800
H1423       H  0.09319708  0.48167911  0.00794790     0.34000
H1424       H  0.06436148  0.48371370  0.00064567     0.38500
H1425       H  0.07560290  0.40132319  0.92136206     0.33900
H1426       H  0.10444599  0.39900367  0.92900964     0.30600
H1427       H  0.16992339  0.42944261  0.97187631     0.33900
H1428       H  0.14751371  0.43095645  0.95216015     0.30600
H1429       H  0.12400575  0.32979249  0.00715190     0.38500
H1430       H  0.09974864  0.34543823  0.01507766     0.34000
C1431       C  0.03512478  0.45029791  0.77533905    -0.19800
C1432       C  0.04541770  0.43994584  0.79573921     0.36400
C1433       C  0.05112457  0.45439630  0.81515898    -0.25800
C1434       C  0.04775956  0.47911061  0.81445535     0.02900
C1435       C  0.04036614  0.48968709  0.79285793     0.27700
C1436       C  0.03359622  0.47507244  0.77376999    -0.24900
N1437       N  0.04970928  0.41487927  0.79761003    -0.82300
H1438       H  0.05743266  0.44606919  0.83133463     0.13500
C1439       C  0.05080689  0.49254184  0.83710226     0.02800
N1440       N  0.03913765  0.51495428  0.78977998    -0.80800
H1441       H  0.02613961  0.48308368  0.75792953     0.18300
C1442       C  0.07205342  0.48951223  0.84989119    -0.25700
C1443       C  0.07368568  0.49615954  0.87385498     0.36300
C1444       C  0.05344529  0.50554682  0.88548241    -0.19700
C1445       C  0.03315080  0.51124561  0.87206288    -0.25000
C1446       C  0.03162652  0.50492964  0.84784477     0.27700
H1447       H  0.08700083  0.48068257  0.84146863     0.13500
N1448       N  0.09547914  0.49236642  0.88681389    -0.82200
H1449       H  0.01774166  0.51877805  0.88089994     0.18300
N1450       N  0.01022284  0.50986647  0.83462189    -0.80800
H1451       H  0.10856536  0.48507153  0.87577322     0.34000
H1452       H  0.10181045  0.50898095  0.89216145     0.38500
H1453       H  0.99768283  0.51848514  0.84532350     0.33900
H1454       H  0.00258254  0.49378666  0.82948699     0.30600
H1455       H  0.05045678  0.51936040  0.77569969     0.33900
H1456       H  0.04598086  0.52385257  0.80456245     0.30600
H1457       H  0.04534245  0.40595973  0.78193685     0.38500
H1458       H  0.03871622  0.40819378  0.81101283     0.34000
C1459       C  0.88512302  0.47263769  0.96010272    -0.19800
C1460       C  0.88047888  0.47152997  0.98482896     0.36400
C1461       C  0.86080905  0.45826691  0.99308026    -0.25800
C1462       C  0.84582092  0.44594188  0.97726587     0.02900
C1463       C  0.85082441  0.44657391  0.95275781     0.27700
C1464       C  0.87014325  0.46002834  0.94447286    -0.24900
N1465       N  0.89605750  0.48308240  0.00153626    -0.82300
H1466       H  0.85702691  0.45765434  0.01194286     0.13500
C1467       C  0.82390154  0.43383916  0.98610506     0.02800
N1468       N  0.83621990  0.43343407  0.93633889    -0.80800
H1469       H  0.87349977  0.46058517  0.92552998     0.18300
C1470       C  0.80176706  0.44157386  0.97724262    -0.25700
C1471       C  0.78021395  0.43161930  0.98491792     0.36300
C1472       C  0.78066451  0.41345102  0.00216507    -0.19700
C1473       C  0.80269878  0.40531029  0.01074014    -0.25000
C1474       C  0.82433824  0.41520724  0.00301642     0.27700
H1475       H  0.80120179  0.45589824  0.96443587     0.13500
N1476       N  0.75835009  0.44088251  0.97526568    -0.82200
H1477       H  0.80305834  0.39132311  0.02392066     0.18300
N1478       N  0.84612624  0.40579537  0.01270720    -0.80800
H1479       H  0.75834755  0.43735956  0.95702143     0.34000
H1480       H  0.74339303  0.43235128  0.98222974     0.38500
H1481       H  0.84677579  0.38777439  0.00839620     0.33900
H1482       H  0.86113983  0.41333422  0.00483341     0.30600
H1483       H  0.84215788  0.43583793  0.91889978     0.33900
H1484       H  0.83833923  0.41543380  0.94020199     0.30600
H1485       H  0.89303474  0.50131539  0.00025949     0.38500
H1486       H  0.89166265  0.47829579  0.01893057     0.34000
C1487       C  0.94258571  0.48141389  0.89517807    -0.19800
C1488       C  0.92700833  0.47757574  0.87585514     0.36400
C1489       C  0.93585813  0.46745617  0.85483887    -0.25800
C1490       C  0.95984938  0.46066796  0.85284757     0.02900
C1491       C  0.97545947  0.46429695  0.87229864     0.27700
C1492       C  0.96672408  0.47512128  0.89312024    -0.24900
N1493       N  0.90228719  0.48416853  0.87761476    -0.82300
H1494       H  0.92396871  0.46475984  0.83987312     0.13500
C1495       C  0.96842921  0.45148566  0.82958491     0.02800
N1496       N  0.99971954  0.45603115  0.87128398    -0.80800
H1497       H  0.97851661  0.47769792  0.90818309     0.18300
C1498       C  0.96624858  0.46636346  0.80968588    -0.25700
C1499       C  0.97495648  0.45965422  0.78736092     0.36300
C1500       C  0.98623432  0.43741442  0.78481304    -0.19700
C1501       C  0.98743985  0.42203936  0.80431843    -0.25000
C1502       C  0.97844952  0.42859954  0.82662466     0.27700
H1503       H  0.95809985  0.48367933  0.81164668     0.13500
N1504       N  0.97195574  0.47580588  0.76783864    -0.82200
H1505       H  0.99561734  0.40476216  0.80219859     0.18300
N1506       N  0.97959568  0.41151953  0.84554795    -0.80800
H1507       H  0.98179883  0.49109562  0.77166697     0.34000
H1508       H  0.97870487  0.46888313  0.75201117     0.38500
H1509       H  0.96987667  0.39662178  0.84014565     0.33900
H1510       H  0.97113143  0.41767113  0.86084979     0.30600
H1511       H  0.00900523  0.46083743  0.88668572     0.33900
H1512       H  0.00827941  0.46429324  0.85712078     0.30600
H1513       H  0.90157221  0.50259464  0.87951394     0.38500
H1514       H  0.89321128  0.48006632  0.86189234     0.34000
C1515       C  0.93795261  0.47514626  0.10357137    -0.19800
C1516       C  0.96230268  0.47736174  0.11014216     0.36400
C1517       C  0.97077949  0.46513644  0.13032961    -0.25800
C1518       C  0.95545232  0.45092494  0.14401202     0.02900
C1519       C  0.93191902  0.44709243  0.13628113     0.27700
C1520       C  0.92348238  0.45910413  0.11626094    -0.24900
N1521       N  0.97824804  0.49216064  0.09675488    -0.82300
H1522       H  0.98909697  0.46755575  0.13602436     0.13500
C1523       C  0.96331980  0.44128664  0.16726194     0.02800
N1524       N  0.91648353  0.43132366  0.14920307    -0.80800
H1525       H  0.90509017  0.45629682  0.11105279     0.18300
C1526       C  0.95046576  0.44759348  0.18777513    -0.25700
C1527       C  0.95656120  0.43842536  0.21015047     0.36300
C1528       C  0.97605645  0.42289518  0.21205035    -0.19700
C1529       C  0.98870784  0.41626771  0.19154759    -0.25000
C1530       C  0.98269194  0.42551335  0.16915167     0.27700
H1531       H  0.93565530  0.45984391  0.18626947     0.13500
N1532       N  0.94347163  0.44527588  0.23100000    -0.82200
H1533       H  0.00363884  0.40418413  0.19316750     0.18300
N1534       N  0.99611057  0.41898236  0.14840095    -0.80800
H1535       H  0.93003209  0.45735163  0.22660715     0.34000
H1536       H  0.93487884  0.43015702  0.23747609     0.38500
H1537       H  0.00996500  0.40742440  0.15291999     0.33900
H1538       H  0.98467708  0.40962308  0.13707719     0.30600
H1539       H  0.89956473  0.43059269  0.14138317     0.33900
H1540       H  0.92370222  0.41428367  0.14794041     0.30600
H1541       H  0.97390706  0.50978690  0.10052618     0.38500
H1542       H  0.99585609  0.48971306  0.10238531     0.34000
C1543       C  0.76208701  0.43174235  0.04631558    -0.19800
C1544       C  0.75863225  0.45602340  0.04102396     0.36400
C1545       C  0.77590377  0.47261503  0.04823025    -0.25800
C1546       C  0.79679460  0.46540619  0.05997679     0.02900
C1547       C  0.79942715  0.44133127  0.06646614     0.27700
C1548       C  0.78165751  0.42494305  0.06019126    -0.24900
N1549       N  0.73867948  0.46424783  0.02724233    -0.82300
H1550       H  0.77366599  0.49106930  0.04340989     0.13500
C1551       C  0.81716523  0.48214181  0.06295538     0.02800
N1552       N  0.82094765  0.43327725  0.07783593    -0.80800
H1553       H  0.78429775  0.40630072  0.06402076     0.18300
C1554       C  0.82759168  0.48472375  0.08544390    -0.25700
C1555       C  0.85062246  0.49408819  0.08791485     0.36300
C1556       C  0.86348828  0.50137408  0.06760570    -0.19700
C1557       C  0.85171909  0.50200069  0.04560346    -0.25000
C1558       C  0.82867751  0.49222499  0.04300544     0.27700
H1559       H  0.81853705  0.47779072  0.10096801     0.13500
N1560       N  0.86128879  0.49530737  0.11104040    -0.82200
H1561       H  0.86114896  0.50834134  0.03009464     0.18300
N1562       N  0.81752352  0.49134770  0.02001091    -0.80800
H1563       H  0.85040244  0.50581668  0.12183769     0.34000
H1564       H  0.86159664  0.47820508  0.11817940     0.38500
H1565       H  0.82850386  0.49909053  0.00716739     0.33900
H1566       H  0.81555638  0.47355176  0.01529435     0.30600
H1567       H  0.82005132  0.41510019  0.08133260     0.33900
H1568       H  0.83498105  0.43562832  0.06582175     0.30600
H1569       H  0.72702597  0.45040986  0.02306549     0.38500
H1570       H  0.72900254  0.47601188  0.03788081     0.34000
C1571       C  0.00751780  0.81901524  0.18524722    -0.19800
C1572       C  0.02096207  0.82487375  0.16496524     0.36400
C1573       C  0.02811182  0.80667567  0.14939630    -0.25800
C1574       C  0.02194704  0.78292406  0.15382223     0.02900
C1575       C  0.01041333  0.77708967  0.17538422     0.27700
C1576       C  0.00375047  0.79513366  0.19097197    -0.24900
N1577       N  0.02670615  0.84918811  0.15993998    -0.82300
H1578       H  0.03764771  0.81107935  0.13325088     0.13500
C1579       C  0.02634125  0.76482803  0.13517141     0.02800
N1580       N  0.00401802  0.75324095  0.18139166    -0.80800
H1581       H  0.99398294  0.79058932  0.20694667     0.18300
C1582       C  0.04181772  0.74593041  0.13991768    -0.25700
C1583       C  0.04643788  0.72858745  0.12264356     0.36300
C1584       C  0.03526573  0.73013767  0.10024399    -0.19700
C1585       C  0.01963909  0.74885224  0.09545107    -0.25000
C1586       C  0.01536786  0.76650930  0.11258506     0.27700
H1587       H  0.05090974  0.74511553  0.15688420     0.13500
N1588       N  0.06303767  0.70975564  0.12741455    -0.82200
H1589       H  0.01185430  0.75039555  0.07788545     0.18300
N1590       N  0.00077267  0.78663260  0.10681816    -0.80800
H1591       H  0.05354395  0.69380199  0.12681112     0.34000
H1592       H  0.06993615  0.71127174  0.14462083     0.38500
H1593       H  0.99368045  0.78494525  0.08970644     0.33900
H1594       H  0.98636524  0.78679104  0.11848932     0.30600
H1595       H  0.01952841  0.74319728  0.18328294     0.33900
H1596       H  0.99376810  0.74605386  0.16767245     0.30600
H1597       H  0.01077889  0.85820181  0.15660722     0.38500
H1598       H  0.03691670  0.85038782  0.14444590     0.34000
C1599       C  0.10113326  0.70838852  0.04988323    -0.19800
C1600       C  0.10732553  0.72876144  0.03682452     0.36400
C1601       C  0.13131262  0.73588855  0.03576674    -0.25800
C1602       C  0.14920690  0.72338464  0.04793452     0.02900
C1603       C  0.14287992  0.70303443  0.06105832     0.27700
C1604       C  0.11896427  0.69550515  0.06161108    -0.24900
N1605       N  0.08904819  0.74273534  0.02563699    -0.82300
H1606       H  0.13605128  0.75155164  0.02571992     0.13500
C1607       C  0.17424437  0.73211729  0.04629772     0.02800
N1608       N  0.16038713  0.69076553  0.07490843    -0.80800
H1609       H  0.11408170  0.68043831  0.07251078     0.18300
C1610       C  0.17916345  0.75609239  0.05123716    -0.25700
C1611       C  0.20114582  0.76639099  0.04487132     0.36300
C1612       C  0.21866934  0.75226652  0.03378323    -0.19700
C1613       C  0.21466175  0.72782191  0.03120885    -0.25000
C1614       C  0.19246970  0.71777607  0.03681420     0.27700
H1615       H  0.16524653  0.76712841  0.05873617     0.13500
N1616       N  0.20515435  0.79134578  0.04830869    -0.82200
H1617       H  0.22808436  0.71689141  0.02272603     0.18300
N1618       N  0.18793141  0.69346221  0.03103163    -0.80800
H1619       H  0.19049276  0.79916431  0.05669918     0.34000
H1620       H  0.20649863  0.79925216  0.03157823     0.38500
H1621       H  0.19071610  0.69118615  0.01280622     0.33900
H1622       H  0.20041084  0.68306186  0.04007294     0.30600
H1623       H  0.15491743  0.69111244  0.09266492     0.33900
H1624       H  0.16063023  0.67306793  0.06936671     0.30600
H1625       H  0.08114090  0.73235720  0.01240271     0.38500
H1626       H  0.09652341  0.75741942  0.01709746     0.34000
C1627       C  0.95645270  0.82260068  0.18023150    -0.19800
C1628       C  0.95609269  0.82841720  0.15589494     0.36400
C1629       C  0.94935878  0.81110860  0.13916594    -0.25800
C1630       C  0.94311536  0.78810779  0.14639363     0.02900
C1631       C  0.94148749  0.78308609  0.17092911     0.27700
C1632       C  0.94795619  0.80041866  0.18760957    -0.24900
N1633       N  0.96344941  0.85160997  0.14831653    -0.82300
H1634       H  0.94979976  0.81526524  0.12037790     0.13500
C1635       C  0.93796079  0.76977863  0.12806703     0.02800
N1636       N  0.93340205  0.76052673  0.17933617    -0.80800
H1637       H  0.94788249  0.79602045  0.20634515     0.18300
C1638       C  0.95362334  0.75060417  0.12459150    -0.25700
C1639       C  0.94901177  0.73295258  0.10733420     0.36300
C1640       C  0.92800153  0.73442505  0.09345530    -0.19700
C1641       C  0.91288049  0.75421653  0.09666860    -0.25000
C1642       C  0.91762290  0.77163351  0.11374404     0.27700
H1643       H  0.96955137  0.74946444  0.13533509     0.13500
N1644       N  0.96517511  0.71339057  0.10450893    -0.82200
H1645       H  0.89678869  0.75611189  0.08615565     0.18300
N1646       N  0.90132068  0.79092061  0.11696600    -0.80800
H1647       H  0.97908996  0.71452432  0.11685971     0.34000
H1648       H  0.97308062  0.71501996  0.08777148     0.38500
H1649       H  0.88458731  0.78385469  0.12115165     0.33900
H1650       H  0.89981243  0.79991971  0.10080865     0.30600
H1651       H  0.94497681  0.74742914  0.17308197     0.33900
H1652       H  0.91642240  0.75736107  0.17228223     0.30600
H1653       H  0.95130831  0.86382198  0.15532262     0.38500
H1654       H  0.96238815  0.85303185  0.12982580     0.34000
C1655       C  0.74464153  0.74603036  0.04509873    -0.19800
C1656       C  0.76321573  0.75811749  0.05717123     0.36400
C1657       C  0.78395754  0.74568872  0.06317178    -0.25800
C1658       C  0.78750055  0.72224569  0.05551424     0.02900
C1659       C  0.76796764  0.70957804  0.04594570     0.27700
C1660       C  0.74639276  0.72138534  0.04194000    -0.24900
N1661       N  0.76258363  0.78312999  0.06214193    -0.82300
H1662       H  0.79857338  0.75527637  0.07140645     0.13500
C1663       C  0.81242774  0.71344728  0.05365376     0.02800
N1664       N  0.77006976  0.68551721  0.03806499    -0.80800
H1665       H  0.73189079  0.71185118  0.03348113     0.18300
C1666       C  0.81966739  0.69247291  0.06503940    -0.25700
C1667       C  0.84376727  0.68528408  0.06460668     0.36300
C1668       C  0.86071385  0.69959868  0.05302533    -0.19700
C1669       C  0.85334333  0.71990094  0.04090868    -0.25000
C1670       C  0.82947412  0.72687402  0.04101462     0.27700
H1671       H  0.80686174  0.68234840  0.07521850     0.13500
N1672       N  0.85139014  0.66445655  0.07713870    -0.82200
H1673       H  0.86644726  0.73110575  0.03225661     0.18300
N1674       N  0.82273820  0.74805825  0.02873344    -0.80800
H1675       H  0.83679777  0.65606975  0.08508663     0.34000
H1676       H  0.85817233  0.65258859  0.06455776     0.38500
H1677       H  0.83205821  0.76224203  0.03632185     0.33900
H1678       H  0.82846811  0.74643100  0.01115875     0.30600
H1679       H  0.77390643  0.67480779  0.05267851     0.33900
H1680       H  0.78409842  0.68437444  0.02588972     0.30600
H1681       H  0.74685851  0.79098428  0.05627403     0.38500
H1682       H  0.77642874  0.79112900  0.05262990     0.34000
C1683       C  0.92284247  0.71669351  0.89752250    -0.19800
C1684       C  0.94527328  0.72803261  0.89583675     0.36400
C1685       C  0.95039896  0.74190445  0.87570333    -0.25800
C1686       C  0.93381911  0.74422419  0.85716594     0.02900
C1687       C  0.91158382  0.73282516  0.85870558     0.27700
C1688       C  0.90627695  0.71923646  0.87888549    -0.24900
N1689       N  0.96231480  0.72630333  0.91486404    -0.82300
H1690       H  0.96741806  0.75087946  0.87437332     0.13500
C1691       C  0.94019207  0.75819217  0.83588974     0.02800
N1692       N  0.89450825  0.73519217  0.83977477    -0.80800
H1693       H  0.88902921  0.71061456  0.88012175     0.18300
C1694       C  0.94858103  0.74599593  0.81587930    -0.25700
C1695       C  0.95669582  0.75817819  0.79580126     0.36300
C1696       C  0.95632237  0.78326956  0.79573318    -0.19700
C1697       C  0.94634272  0.79540716  0.81508219    -0.25000
C1698       C  0.93832137  0.78320448  0.83524568     0.27700
H1699       H  0.94945451  0.72679969  0.81613526     0.13500
N1700       N  0.96540861  0.74453213  0.77603355    -0.82200
H1701       H  0.94612637  0.81462134  0.81511255     0.18300
N1702       N  0.92907223  0.79680497  0.85481019    -0.80800
H1703       H  0.98044479  0.73517658  0.78174342     0.34000
H1704       H  0.97074088  0.75533255  0.76196206     0.38500
H1705       H  0.91376696  0.80554250  0.84880609     0.33900
H1706       H  0.92363743  0.78598587  0.86881958     0.30600
H1707       H  0.87903238  0.72554856  0.84356679     0.33900
H1708       H  0.88947868  0.75301900  0.83896192     0.30600
H1709       H  0.96870649  0.70890681  0.91506891     0.38500
H1710       H  0.97711736  0.73708243  0.91147260     0.34000
C1711       C  0.85856838  0.69889456  0.95326274    -0.19800
C1712       C  0.84908081  0.69246775  0.97570048     0.36400
C1713       C  0.82620389  0.70080599  0.98242668    -0.25800
C1714       C  0.81243034  0.71503491  0.96714548     0.02900
C1715       C  0.82110940  0.71979510  0.94410655     0.27700
C1716       C  0.84381909  0.71180124  0.93758456    -0.24900
N1717       N  0.86275417  0.67816841  0.99183852    -0.82300
H1718       H  0.81934668  0.69676133  0.99993993     0.13500
C1719       C  0.79021117  0.72653665  0.97611234     0.02800
N1720       N  0.80741927  0.73263434  0.92673974    -0.80800
H1721       H  0.85005445  0.71621561  0.91992058     0.18300
C1722       C  0.79038406  0.75103041  0.98053439    -0.25700
C1723       C  0.77040497  0.76270502  0.98996033     0.36300
C1724       C  0.74906632  0.74981676  0.99388493    -0.19700
C1725       C  0.74834839  0.72563290  0.98772775    -0.25000
C1726       C  0.76889965  0.71372480  0.97948957     0.27700
H1727       H  0.80652562  0.76110448  0.97725863     0.13500
N1728       N  0.77265503  0.78749111  0.99556436    -0.82200
H1729       H  0.73198542  0.71577435  0.99048053     0.18300
N1730       N  0.76831565  0.68868823  0.97481143    -0.80800
H1731       H  0.78555798  0.78911630  0.00889861     0.34000
H1732       H  0.75688677  0.79451173  0.00243313     0.38500
H1733       H  0.75140741  0.68178190  0.97853684     0.33900
H1734       H  0.77118444  0.68626854  0.95661703     0.30600
H1735       H  0.81598726  0.74883531  0.92380076     0.33900
H1736       H  0.79018675  0.73638617  0.93265222     0.30600
H1737       H  0.86442952  0.66135157  0.98419108     0.38500
H1738       H  0.85343125  0.67568423  0.00772151     0.34000
C1739       C  0.21848722  0.75282881  0.98269128    -0.19800
C1740       C  0.21906763  0.72989009  0.97239275     0.36400
C1741       C  0.19751610  0.71898940  0.96567087    -0.25800
C1742       C  0.17559330  0.73048706  0.96899337     0.02900
C1743       C  0.17512296  0.75374043  0.97808631     0.27700
C1744       C  0.19660066  0.76478577  0.98447723    -0.24900
N1745       N  0.24085219  0.71675204  0.96955568    -0.82300
H1746       H  0.19782624  0.70125106  0.95826015     0.13500
C1747       C  0.15306543  0.71865603  0.96209831     0.02800
N1748       N  0.15273015  0.76566591  0.98167277    -0.80800
H1749       H  0.19618014  0.78232714  0.99231849     0.18300
C1750       C  0.14033258  0.70527630  0.97886229    -0.25700
C1751       C  0.11703530  0.69706122  0.97396401     0.36300
C1752       C  0.10630127  0.70273229  0.95191536    -0.19700
C1753       C  0.11998164  0.71477133  0.93469973    -0.25000
C1754       C  0.14316820  0.72275444  0.93955669     0.27700
H1755       H  0.14825331  0.70202388  0.99611396     0.13500
N1756       N  0.10423368  0.68359740  0.99147701    -0.82200
H1757       H  0.11231155  0.71863540  0.91746009     0.18300
N1758       N  0.15661810  0.73530921  0.92179180    -0.80800
H1759       H  0.11497091  0.68050395  0.00635377     0.34000
H1760       H  0.08987907  0.69386397  0.99730650     0.38500
H1761       H  0.14689261  0.73654597  0.90598009     0.33900
H1762       H  0.15924363  0.75266862  0.92774732     0.30600
H1763       H  0.15545514  0.78235461  0.98931948     0.33900
H1764       H  0.14502091  0.76862090  0.96503374     0.30600
H1765       H  0.25561683  0.72654211  0.97519028     0.38500
H1766       H  0.24320975  0.71374602  0.95137094     0.34000
C1767       C  0.03655410  0.72568480  0.90612490    -0.19800
C1768       C  0.04377397  0.74954182  0.90381557     0.36400
C1769       C  0.03782048  0.76210781  0.88320241    -0.25800
C1770       C  0.02463337  0.75144816  0.86488948     0.02900
C1771       C  0.01692032  0.72768757  0.86743272     0.27700
C1772       C  0.02274611  0.71514164  0.88821509    -0.24900
N1773       N  0.05754178  0.76076159  0.92226314    -0.82300
H1774       H  0.04401410  0.78018679  0.88114888     0.13500
C1775       C  0.01935040  0.76539065  0.84312787     0.02800
N1776       N  0.00390765  0.71615740  0.84864129    -0.80800
H1777       H  0.01756851  0.69670627  0.88989065     0.18300
C1778       C  0.02536278  0.75606232  0.82074612    -0.25700
C1779       C  0.01908101  0.76796204  0.79974279     0.36300
C1780       C  0.00684488  0.78965972  0.80125970    -0.19700
C1781       C  0.00274308  0.80001389  0.82352527    -0.25000
C1782       C  0.00845292  0.78794167  0.84453225     0.27700
H1783       H  0.03449982  0.73917937  0.81966849     0.13500
N1784       N  0.02390812  0.75755666  0.77693233    -0.82200
H1785       H  0.99345795  0.81683360  0.82446679     0.18300
N1786       N  0.00240629  0.79811042  0.86719091    -0.80800
H1787       H  0.03232344  0.74114405  0.77892771     0.34000
H1788       H  0.03602887  0.76859386  0.76818070     0.38500
H1789       H  0.99458791  0.81479202  0.86502677     0.33900
H1790       H  0.98948354  0.78729493  0.87502040     0.30600
H1791       H  0.99962790  0.69874205  0.85334438     0.33900
H1792       H  0.98777599  0.72510517  0.84634813     0.30600
H1793       H  0.04685550  0.76154589  0.93746376     0.38500
H1794       H  0.06163085  0.77826197  0.91770887     0.34000
loop_ 
_geom_bond_atom_site_label_1 
_geom_bond_atom_site_label_2 
_geom_bond_distance 
_geom_bond_site_symmetry_2 
_ccdc_geom_bond_type 
C1            N2   1.363       .  A
C1            N6   1.353       .  A
C1         C1752   1.492       .  S
N2            C3   1.366       .  A
C3            N4   1.360       .  A
C3           C51   1.468       .  S
N4            C5   1.358       .  A
C5            N6   1.351       .  A
C5         C1767   1.473       .  S
C7            N8   1.356       .  A
C7           N12   1.367       .  A
C7         C1711   1.506       .  S
N8            C9   1.353       .  A
C9           N10   1.359       .  A
C9         C1683   1.482       .  S
N10          C11   1.361       .  A
C11          N12   1.370       .  A
C11          C57   1.477       .  S
C13          N14   1.368       .  A
C13          N18   1.351       .  A
C13        C1640   1.496       .  S
N14          C15   1.371       .  A
C15          N16   1.363       .  A
C15          C74   1.473       .  S
N16          C17   1.355       .  A
C17          N18   1.346       .  A
C17        C1668   1.464       .  S
C19          N20   1.350       .  A
C19          N24   1.361       .  A
C19        C1584   1.467       .  S
N20          C21   1.349       .  A
C21          N22   1.360       .  A
C21        C1599   1.468       .  S
N22          C23   1.365       .  A
C23          N24   1.364       .  A
C23          C80   1.470       .  S
C25          N26   1.353       .  A
C25          N30   1.359       .  A
C25        C1515   1.495       .  S
N26          C27   1.352       .  A
C27          N28   1.362       .  A
C27        C1556   1.485       .  S
N28          C29   1.367       .  A
C29          N30   1.363       .  A
C29          C77   1.470       .  S
C31          N32   1.360       .  A
C31          N36   1.358       .  A
C31        C1459   1.492       .  S
N32          C33   1.360       .  A
C33          N34   1.360       .  A
C33          C54   1.463       .  S
N34          C35   1.358       .  A
C35          N36   1.355       .  A
C35        C1487   1.477       .  S
C37          N38   1.352       .  A
C37          N42   1.364       .  A
C37        C1416   1.488       .  S
N38          C39   1.352       .  A
C39          N40   1.362       .  A
C39        C1444   1.481       .  S
N40          C41   1.367       .  A
C41          N42   1.366       .  A
C41          C60   1.482       .  S
C43          N44   1.352       .  A
C43          N48   1.362       .  A
C43        C1347   1.483       .  S
N44          C45   1.352       .  A
C45          N46   1.362       .  A
C45        C1388   1.478       .  S
N46          C47   1.365       .  A
C47          N48   1.368       .  A
C47          C71   1.477       .  S
O49         Zr61   2.444       .  S
O49          C51   1.287       .  A
O50         Zr87   2.446   1_456  S
O50          C51   1.291       .  A
O52         Zr64   2.455       .  S
O52          C54   1.290       .  A
O53         Zr88   2.424   1_556  S
O53          C54   1.286       .  A
O55         Zr64   2.455       .  S
O55          C57   1.290       .  A
O56         Zr87   2.455   1_556  S
O56          C57   1.292       .  A
O58         Zr61   2.457       .  S
O58          C60   1.290       .  A
O59         Zr88   2.455   1_456  S
O59          C60   1.292       .  A
Zr61         O62   2.435       .  S
Zr61         O63   2.436       .  S
Zr61         O67   2.384   1_455  S
Zr61         O68   2.365   1_455  S
Zr61         O91   2.386   1_556  S
Zr61         O93   2.370   1_556  S
O62         H105   0.990       .  S
O63         H104   0.990       .  S
O63         H108   0.990       .  S
Zr64         O65   2.438       .  S
Zr64         O66   2.433       .  S
Zr64         O68   2.369       .  S
Zr64         O67   2.378       .  S
Zr64         O92   2.371   1_556  S
Zr64         O94   2.376   1_556  S
O65         H106   0.990       .  S
O65         H109   0.990       .  S
O66          H99   0.990       .  S
O67         Zr87   2.392   1_556  S
O68         Zr88   2.389   1_556  S
O68          H95   0.964       .  S
O69         Zr81   2.445       .  S
O69          C71   1.288       .  A
O70         Zr88   2.455   1_455  S
O70          C71   1.291       .  A
O72         Zr84   2.448       .  S
O72          C74   1.289       .  A
O73         Zr87   2.445       .  S
O73          C74   1.289       .  A
O75         Zr84   2.446       .  S
O75          C77   1.288       .  A
O76         Zr88   2.439       .  S
O76          C77   1.289       .  A
O78         Zr81   2.452       .  S
O78          C80   1.289       .  A
O79         Zr87   2.440   1_455  S
O79          C80   1.289       .  A
Zr81         O82   2.436       .  S
Zr81         O83   2.434       .  S
Zr81         O89   2.370   1_455  S
Zr81         O90   2.374   1_455  S
Zr81         O93   2.367       .  S
Zr81         O91   2.385       .  S
O82         H102   0.990       .  S
O82         H107   0.990       .  S
O83         H103   0.990       .  S
Zr84         O85   2.434       .  S
Zr84         O86   2.436       .  S
Zr84         O90   2.376       .  S
Zr84         O89   2.367       .  S
Zr84         O94   2.371       .  S
Zr84         O92   2.359       .  S
O85         H101   0.990       .  S
O86         H100   0.990       .  S
O86         H110   0.990       .  S
Zr87         O90   2.388       .  S
Zr87         O92   2.389       .  S
Zr87         O93   2.389   1_655  S
Zr88         O89   2.385       .  S
Zr88         O91   2.387   1_655  S
Zr88         O94   2.394       .  S
O89          H97   0.966       .  S
O92          H96   0.965       .  S
O93          H98   0.964       .  S
C111        N112   1.353       .  A
C111        N116   1.361       .  A
C111       C1304   1.475       .  S
N112        C113   1.355       .  A
C113        N114   1.365       .  A
C113       C1319   1.494   1_545  S
N114        C115   1.364       .  A
C115        N116   1.365       .  A
C115        C161   1.478       .  S
C117        N118   1.356       .  A
C117        N122   1.366       .  A
C117       C1276   1.489       .  S
N118        C119   1.350       .  A
C119        N120   1.355       .  A
C119       C1235   1.466   1_545  S
N120        C121   1.359       .  A
C121        N122   1.368       .  A
C121        C167   1.469       .  S
C123        N124   1.363       .  A
C123        N128   1.348       .  A
C123       C1192   1.482       .  S
N124        C125   1.367       .  A
C125        N126   1.371       .  A
C125        C184   1.481       .  S
N126        C127   1.365       .  A
C127        N128   1.349       .  A
C127       C1220   1.489       .  S
C129        N130   1.359       .  A
C129        N134   1.353       .  A
C129       C1123   1.473       .  S
N130        C131   1.363       .  A
C131        N132   1.363       .  A
C131        C190   1.465       .  S
N132        C133   1.362       .  A
C133        N134   1.356       .  A
C133       C1151   1.491       .  S
C135        N136   1.353       .  A
C135        N140   1.363       .  A
C135       C1080   1.481       .  S
N136        C137   1.352       .  A
C137        N138   1.358       .  A
C137       C1095   1.481       .  S
N138        C139   1.365       .  A
C139        N140   1.367       .  A
C139        C187   1.472       .  S
C141        N142   1.366       .  A
C141        N146   1.353       .  A
C141       C1011   1.502       .  S
N142        C143   1.368       .  A
C143        N144   1.367       .  A
C143        C164   1.483       .  S
N144        C145   1.363   1_545  A
C145        N146   1.353   1_565  A
C145       C1052   1.490       .  S
C147        N148   1.363       .  A
C147        N152   1.352       .  A
C147        C955   1.480       .  S
N148        C149   1.364       .  A
C149        N150   1.364       .  A
C149        C170   1.475       .  S
N150        C151   1.363   1_545  A
C151        N152   1.353   1_565  A
C151        C983   1.477       .  S
C153        N154   1.351       .  A
C153        N158   1.363       .  A
C153        C940   1.484       .  S
N154        C155   1.349       .  A
C155        N156   1.360       .  A
C155        C899   1.483       .  S
N156        C157   1.366       .  A
C157        N158   1.366       .  A
C157        C181   1.475       .  S
O159       Zr171   2.446       .  S
O159        C161   1.288       .  A
O160       Zr197   2.462       .  S
O160        C161   1.293       .  A
O162       Zr174   2.466       .  S
O162        C164   1.292       .  A
O163       Zr198   2.446   1_556  S
O163        C164   1.290       .  A
O165       Zr174   2.458       .  S
O165        C167   1.291       .  A
O166       Zr197   2.439   1_556  S
O166        C167   1.289       .  A
O168       Zr171   2.451       .  S
O168        C170   1.289       .  A
O169       Zr198   2.450       .  S
O169        C170   1.291       .  A
Zr171       O172   2.435       .  S
Zr171       O173   2.436       .  S
Zr171       O177   2.376       .  S
Zr171       O178   2.371       .  S
Zr171       O201   2.374       .  S
Zr171       O203   2.375       .  S
O172        H215   0.990       .  S
O173        H214   0.990       .  S
O173        H218   0.990       .  S
Zr174       O175   2.436       .  S
Zr174       O176   2.435       .  S
Zr174       O178   2.370   1_556  S
Zr174       O177   2.380   1_556  S
Zr174       O202   2.376       .  S
Zr174       O204   2.376       .  S
O175        H216   0.990       .  S
O175        H219   0.990       .  S
O176        H209   0.990       .  S
O177       Zr197   2.396       .  S
O178       Zr198   2.396       .  S
O178        H205   0.966       .  S
O179       Zr191   2.433       .  S
O179        C181   1.285       .  A
O180       Zr198   2.456       .  S
O180        C181   1.292       .  A
O182       Zr194   2.452       .  S
O182        C184   1.289       .  A
O183       Zr197   2.453       .  S
O183        C184   1.292   1_554  A
O185       Zr194   2.444       .  S
O185        C187   1.288       .  A
O186       Zr198   2.444   1_556  S
O186        C187   1.289       .  A
O188       Zr191   2.429       .  S
O188        C190   1.284       .  A
O189       Zr197   2.446       .  S
O189        C190   1.290       .  A
Zr191       O192   2.436       .  S
Zr191       O193   2.436       .  S
Zr191       O199   2.373       .  S
Zr191       O200   2.373       .  S
Zr191       O203   2.370       .  S
Zr191       O201   2.370       .  S
O192        H212   0.990       .  S
O192        H217   0.990       .  S
O193        H213   0.990       .  S
Zr194       O195   2.435       .  S
Zr194       O196   2.435       .  S
Zr194       O200   2.374   1_556  S
Zr194       O199   2.378   1_556  S
Zr194       O204   2.374       .  S
Zr194       O202   2.361       .  S
O195        H211   0.990       .  S
O196        H210   0.990       .  S
O196        H220   0.990       .  S
Zr197       O200   2.386       .  S
Zr197       O202   2.394   1_554  S
Zr197       O203   2.390       .  S
Zr198       O199   2.391       .  S
Zr198       O201   2.388       .  S
Zr198       O204   2.392   1_554  S
O199        H207   0.964       .  S
O202        H206   0.964       .  S
O203        H208   0.967       .  S
C221        N222   1.354       .  A
C221        N226   1.362       .  A
C221        C856   1.479       .  S
N222        C223   1.351       .  A
C223        N224   1.360       .  A
C223        C871   1.472       .  S
N224        C225   1.364       .  A
C225        N226   1.365       .  A
C225        C277   1.472       .  S
C227        N228   1.349       .  A
C227        N232   1.356       .  A
C227        C815   1.467       .  S
N228        C229   1.354       .  A
C229        N230   1.363       .  A
C229        C787   1.494   1_545  S
N230        C231   1.366       .  A
C231        N232   1.361       .  A
C231        C271   1.466       .  S
C233        N234   1.360       .  A
C233        N238   1.356       .  A
C233        C731   1.485       .  S
N234        C235   1.360       .  A
C235        N236   1.367       .  A
C235        C300   1.474       .  S
N236        C237   1.365       .  A
C237        N238   1.353       .  A
C237        C759   1.484       .  S
C239        N240   1.351       .  A
C239        N244   1.366       .  A
C239        C688   1.494       .  S
N240        C241   1.348       .  A
C241        N242   1.360       .  A
C241        C703   1.471       .  S
N242        C243   1.366       .  A
C243        N244   1.368       .  A
C243        C294   1.476       .  S
C245        N246   1.364       .  A
C245        N250   1.353       .  A
C245        C632   1.479       .  S
N246        C247   1.365       .  A
C247        N248   1.358       .  A
C247        C291   1.465       .  S
N248        C249   1.356       .  A
C249        N250   1.351       .  A
C249        C647   1.467       .  S
C251        N252   1.361       .  A
C251        N256   1.349       .  A
C251        C563   1.482       .  S
N252        C253   1.368       .  A
C253        N254   1.364       .  A
C253        C280   1.473       .  S
N254        C255   1.361       .  A
C255        N256   1.350       .  A
C255        C591   1.475       .  S
C257        N258   1.351       .  A
C257        N262   1.360       .  A
C257        C520   1.471       .  S
N258        C259   1.350       .  A
C259        N260   1.358       .  A
C259        C535   1.476       .  S
N260        C261   1.363       .  A
C261        N262   1.365       .  A
C261        C274   1.468       .  S
C263        N264   1.363       .  A
C263        N268   1.348       .  A
C263        C451   1.482       .  S
N264        C265   1.366       .  A
C265        N266   1.366       .  A
C265        C297   1.475       .  S
N266        C267   1.363       .  A
C267        N268   1.353       .  A
C267        C479   1.495       .  S
O269       Zr281   2.435       .  S
O269        C271   1.286       .  A
O270       Zr307   2.445       .  S
O270        C271   1.290       .  A
O272       Zr284   2.453       .  S
O272        C274   1.289       .  A
O273       Zr308   2.427   1_455  S
O273        C274   1.287       .  A
O275       Zr284   2.465       .  S
O275        C277   1.291       .  A
O276       Zr307   2.429   1_455  S
O276        C277   1.287       .  A
O278       Zr281   2.431       .  S
O278        C280   1.285       .  A
O279       Zr308   2.457       .  S
O279        C280   1.292       .  A
Zr281       O282   2.435       .  S
Zr281       O283   2.437       .  S
Zr281       O287   2.370       .  S
Zr281       O288   2.376       .  S
Zr281       O311   2.365       .  S
Zr281       O313   2.366       .  S
O282        H325   0.990       .  S
O283        H324   0.990       .  S
O283        H328   0.990       .  S
Zr284       O285   2.437       .  S
Zr284       O286   2.437       .  S
Zr284       O288   2.379   1_455  S
Zr284       O287   2.364   1_455  S
Zr284       O312   2.375       .  S
Zr284       O314   2.377       .  S
O285        H326   0.990       .  S
O285        H329   0.990       .  S
O286        H319   0.990       .  S
O287       Zr307   2.384       .  S
O288       Zr308   2.391       .  S
O288        H315   0.964       .  S
O289       Zr301   2.463       .  S
O289        C291   1.291       .  A
O290       Zr308   2.419       .  S
O290        C291   1.285       .  A
O292       Zr304   2.442       .  S
O292        C294   1.286       .  A
O293       Zr307   2.458   1_455  S
O293        C294   1.292       .  A
O295       Zr304   2.443       .  S
O295        C297   1.287       .  A
O296       Zr308   2.455   1_455  S
O296        C297   1.291       .  A
O298       Zr301   2.459       .  S
O298        C300   1.290       .  A
O299       Zr307   2.440       .  S
O299        C300   1.289       .  A
Zr301       O302   2.433       .  S
Zr301       O303   2.436       .  S
Zr301       O309   2.379       .  S
Zr301       O310   2.387       .  S
Zr301       O313   2.372       .  S
Zr301       O311   2.365       .  S
O302        H322   0.991       .  S
O302        H327   0.990       .  S
O303        H323   0.990       .  S
Zr304       O305   2.435       .  S
Zr304       O306   2.435       .  S
Zr304       O310   2.380   1_455  S
Zr304       O309   2.371   1_455  S
Zr304       O314   2.371       .  S
Zr304       O312   2.372       .  S
O305        H321   0.990       .  S
O306        H320   0.990       .  S
O306        H330   0.990       .  S
Zr307       O310   2.391       .  S
Zr307       O312   2.386   1_655  S
Zr307       O313   2.392       .  S
Zr308       O309   2.392       .  S
Zr308       O311   2.384       .  S
Zr308       O314   2.379   1_655  S
O309        H317   0.966       .  S
O312        H316   0.966       .  S
O313        H318   0.965       .  S
C331        S332   1.800       .  S
C331        S335   1.804   1_655  S
C331        C339   1.354       .  D
S332        C333   1.788       .  S
C333        C334   1.347   1_655  D
C333        C619   1.483       .  S
C334        S335   1.797       .  S
C334        C464   1.491       .  S
C336        S340   1.796       .  S
C336        C337   1.344   1_455  D
C336       C1360   1.485       .  S
C337        S338   1.788       .  S
C337       C1528   1.484       .  S
S338        C339   1.800       .  S
C339        S340   1.804   1_655  S
C341        S342   1.804       .  S
C341        S345   1.798       .  S
C341        C349   1.353       .  D
S342        C343   1.798       .  S
C343        C344   1.348       .  D
C343        C507   1.493       .  S
C344        S345   1.789       .  S
C344        C492   1.483       .  S
C346        S350   1.790       .  S
C346        C347   1.346       .  D
C346        C912   1.482       .  S
C347        S348   1.795       .  S
C347        C968   1.489       .  S
S348        C349   1.801       .  S
C349        S350   1.801       .  S
C351        S352   1.805       .  S
C351        S355   1.803   1_554  S
C351        C359   1.356       .  D
S352        C353   1.802       .  S
C353        C354   1.347       .  D
C353       C1375   1.492       .  S
C354        S355   1.790   1_554  S
C354       C1403   1.489   1_554  S
C356        S360   1.789   1_554  S
C356        C357   1.345       .  D
C356       C1067   1.487   1_554  S
C357        S358   1.798       .  S
C357        C927   1.488       .  S
S358        C359   1.806       .  S
C359        S360   1.804   1_554  S
C361        S362   1.800       .  S
C361        S365   1.802       .  S
C361        C369   1.353       .  D
S362        C363   1.789       .  S
C363        C364   1.349       .  D
C363       C1164   1.486       .  S
C364        S365   1.796       .  S
C364       C1291   1.487       .  S
C366        S370   1.793       .  S
C366        C367   1.346       .  D
C366        C576   1.486       .  S
C367        S368   1.787       .  S
C367        C660   1.481       .  S
S368        C369   1.799       .  S
C369        S370   1.804       .  S
C371        S372   1.803   1_655  S
C371        S375   1.801       .  S
C371        C379   1.351       .  D
S372        C373   1.790   1_455  S
C373        C374   1.344       .  D
C373        C548   1.483   1_655  S
C374        S375   1.786       .  S
C374        C604   1.482       .  S
C376        S380   1.788       .  S
C376        C377   1.347       .  D
C376       C1627   1.487       .  S
C377        S378   1.791   1_655  S
C377       C1571   1.484   1_655  S
S378        C379   1.801   1_455  S
C379        S380   1.803       .  S
C381        S382   1.804       .  S
C381        S385   1.807       .  S
C381        C389   1.359       .  D
S382        C383   1.791       .  S
C383        C384   1.346       .  D
C383        C843   1.487       .  S
C384        S385   1.800       .  S
C384        C716   1.491       .  S
C386        S390   1.802       .  S
C386        C387   1.346       .  D
C386       C1108   1.487       .  S
C387        S388   1.792       .  S
C387       C1024   1.492       .  S
S388        C389   1.803       .  S
C389        S390   1.806       .  S
C391        S392   1.798   1_455  S
C391        S395   1.803       .  S
C391        C399   1.352       .  D
S392        C393   1.785       .  S
C393        C394   1.344   1_655  D
C393       C1500   1.482       .  S
C394        S395   1.795       .  S
C394       C1431   1.483       .  S
C396        S400   1.794       .  S
C396        C397   1.345   1_455  D
C396        C675   1.482       .  S
C397        S398   1.787       .  S
C397        C744   1.485       .  S
S398        C399   1.801   1_655  S
C399        S400   1.801       .  S
C401        S402   1.799       .  S
C401        S405   1.806   1_554  S
C401        C409   1.355       .  D
S402        C403   1.789       .  S
C403        C404   1.344   1_554  D
C403        C996   1.481       .  S
C404        S405   1.799       .  S
C404       C1039   1.490       .  S
C406        S410   1.798       .  S
C406        C407   1.349   1_556  D
C406       C1739   1.489       .  S
C407        S408   1.791       .  S
C407       C1612   1.492       .  S
S408        C409   1.803       .  S
C409        S410   1.801   1_554  S
C411        S412   1.805       .  S
C411        S415   1.799       .  S
C411        C419   1.354       .  D
S412        C413   1.799       .  S
C413        C414   1.347       .  D
C413       C1136   1.493       .  S
C414        S415   1.786       .  S
C414       C1179   1.480       .  S
C416        S420   1.787   1_554  S
C416        C417   1.345       .  D
C416       C1472   1.486       .  S
C417        S418   1.797       .  S
C417       C1543   1.484       .  S
S418        C419   1.803       .  S
C419        S420   1.802   1_554  S
C421        S422   1.801   1_655  S
C421        S425   1.802       .  S
C421        C429   1.351       .  D
S422        C423   1.788   1_455  S
C423        C424   1.345       .  D
C423       C1780   1.482   1_655  S
C424        S425   1.789       .  S
C424       C1696   1.484       .  S
C426        S430   1.790       .  S
C426        C427   1.345       .  D
C426        C800   1.480       .  S
C427        S428   1.788   1_655  S
C427        C884   1.485   1_655  S
S428        C429   1.801   1_455  S
C429        S430   1.800       .  S
C431        S432   1.809       .  S
C431        S435   1.802       .  S
C431        C439   1.360       .  D
S432        C433   1.806       .  S
C433        C434   1.346       .  D
C433       C1207   1.495       .  S
C434        S435   1.790       .  S
C434       C1263   1.485       .  S
C436        S440   1.791       .  S
C436        C437   1.349       .  D
C436        C828   1.488       .  S
C437        S438   1.806       .  S
C437        C772   1.498       .  S
S438        C439   1.808       .  S
C439        S440   1.802       .  S
C441        S442   1.801   1_554  S
C441        S445   1.805       .  S
C441        C449   1.357       .  D
S442        C443   1.796   1_556  S
C443        C444   1.346       .  D
C443       C1248   1.485   1_554  S
C444        S445   1.797       .  S
C444       C1332   1.491       .  S
C446        S450   1.798       .  S
C446        C447   1.350       .  D
C446       C1655   1.487       .  S
C447        S448   1.798   1_554  S
C447       C1724   1.497   1_554  S
S448        C449   1.804   1_556  S
C449        S450   1.799       .  S
C451        C452   1.416       .  A
C451        C456   1.410       .  A
C452        C453   1.403       .  A
C452        N457   1.439       .  S
C453        C454   1.402       .  A
C453        H458   1.077       .  S
C454        C459   1.487       .  S
C454        C455   1.412       .  A
C455        C456   1.403       .  A
C455        N460   1.438       .  S
C456        H461   1.084       .  S
N457        H477   1.041       .  S
N457        H478   1.046       .  S
C459        C462   1.402       .  A
C459        C466   1.417       .  A
N460        H475   1.045       .  S
N460        H476   1.043       .  S
C462        C463   1.403       .  A
C462        H467   1.084       .  S
C463        C464   1.416       .  A
C463        N468   1.438       .  S
C464        C465   1.404       .  A
C465        C466   1.405       .  A
C465        H469   1.084       .  S
C466        N470   1.438       .  S
N468        H471   1.045   1_455  S
N468        H472   1.044   1_455  S
N470        H473   1.046       .  S
N470        H474   1.043       .  S
C479        C480   1.418       .  A
C479        C484   1.412       .  A
C480        C481   1.412       .  A
C480        N485   1.437       .  S
C481        C482   1.405       .  A
C481        H486   1.082       .  S
C482        C487   1.481       .  S
C482        C483   1.403       .  A
C483        C484   1.397       .  A
C483        N488   1.439       .  S
C484        H489   1.082       .  S
N485        H505   1.046       .  S
N485        H506   1.046       .  S
C487        C490   1.402       .  A
C487        C494   1.408       .  A
N488        H503   1.045       .  S
N488        H504   1.046       .  S
C490        C491   1.396       .  A
C490        H495   1.084       .  S
C491        C492   1.414       .  A
C491        N496   1.438       .  S
C492        C493   1.405       .  A
C493        C494   1.407       .  A
C493        H497   1.083       .  S
C494        N498   1.437       .  S
N496        H499   1.045       .  S
N496        H500   1.043       .  S
N498        H501   1.046       .  S
N498        H502   1.046       .  S
C507        C508   1.416       .  A
C507        C512   1.406       .  A
C508        C509   1.403       .  A
C508        N513   1.438       .  S
C509        C510   1.407       .  A
C509        H514   1.084       .  S
C510        C515   1.493       .  S
C510        C511   1.415       .  A
C511        C512   1.400       .  A
C511        N516   1.433       .  S
C512        H517   1.084       .  S
N513        H533   1.041       .  S
N513        H534   1.045       .  S
C515        C518   1.409       .  A
C515        C522   1.412       .  A
N516        H531   1.043       .  S
N516        H532   1.045       .  S
C518        C519   1.413       .  A
C518        H523   1.081       .  S
C519        C520   1.408       .  A
C519        N524   1.436       .  S
C520        C521   1.398       .  A
C521        C522   1.395       .  A
C521        H525   1.085       .  S
C522        N526   1.432       .  S
N524        H527   1.046       .  S
N524        H528   1.046       .  S
N526        H529   1.045       .  S
N526        H530   1.046       .  S
C535        C536   1.411       .  A
C535        C540   1.402       .  A
C536        C537   1.398       .  A
C536        N541   1.433       .  S
C537        C538   1.400   1_545  A
C537        H542   1.084       .  S
C538        C543   1.486       .  S
C538        C539   1.415       .  A
C539        C540   1.408   1_565  A
C539        N544   1.437   1_455  S
C540        H545   1.084   1_545  S
N541        H561   1.046       .  S
N541        H562   1.046       .  S
C543        C546   1.405       .  A
C543        C550   1.413       .  A
N544        H559   1.046       .  S
N544        H560   1.041       .  S
C546        C547   1.406       .  A
C546        H551   1.083       .  S
C547        C548   1.407       .  A
C547        N552   1.437       .  S
C548        C549   1.402       .  A
C549        C550   1.403       .  A
C549        H553   1.084   1_455  S
C550        N554   1.438   1_565  S
N552        H555   1.046       .  S
N552        H556   1.045       .  S
N554        H557   1.046   1_455  S
N554        H558   1.044   1_455  S
C563        C564   1.414       .  A
C563        C568   1.404       .  A
C564        C565   1.400       .  A
C564        N569   1.433       .  S
C565        C566   1.398       .  A
C565        H570   1.084       .  S
C566        C571   1.483       .  S
C566        C567   1.412       .  A
C567        C568   1.411       .  A
C567        N572   1.437       .  S
C568        H573   1.083       .  S
N569        H589   1.046   1_545  S
N569        H590   1.046   1_545  S
C571        C574   1.403       .  A
C571        C578   1.415       .  A
N572        H587   1.046       .  S
N572        H588   1.043       .  S
C574        C575   1.411       .  A
C574        H579   1.083       .  S
C575        C576   1.412       .  A
C575        N580   1.437       .  S
C576        C577   1.399       .  A
C577        C578   1.395       .  A
C577        H581   1.084       .  S
C578        N582   1.433       .  S
N580        H583   1.046       .  S
N580        H584   1.044       .  S
N582        H585   1.044       .  S
N582        H586   1.046       .  S
C591        C592   1.410       .  A
C591        C596   1.405   1_545  A
C592        C593   1.401       .  A
C592        N597   1.432       .  S
C593        C594   1.407   1_545  A
C593        H598   1.080       .  S
C594        C599   1.487       .  S
C594        C595   1.409       .  A
C595        C596   1.401       .  A
C595        N600   1.438       .  S
C596        H601   1.084       .  S
N597        H617   1.045       .  S
N597        H618   1.046       .  S
C599        C602   1.404       .  A
C599        C606   1.411       .  A
N600        H615   1.046       .  S
N600        H616   1.046       .  S
C602        C603   1.398       .  A
C602        H607   1.084       .  S
C603        C604   1.415       .  A
C603        N608   1.439       .  S
C604        C605   1.402       .  A
C605        C606   1.406       .  A
C605        H609   1.084       .  S
C606        N610   1.437       .  S
N608        H611   1.046       .  S
N608        H612   1.044       .  S
N610        H613   1.046       .  S
N610        H614   1.045       .  S
C619        C620   1.407       .  A
C619        C624   1.400       .  A
C620        C621   1.406       .  A
C620        N625   1.437       .  S
C621        C622   1.407       .  A
C621        H626   1.084       .  S
C622        C627   1.490       .  S
C622        C623   1.419       .  A
C623        C624   1.396       .  A
C623        N628   1.434       .  S
C624        H629   1.084       .  S
N625        H645   1.045       .  S
N625        H646   1.046       .  S
C627        C630   1.401       .  A
C627        C634   1.418       .  A
N628        H643   1.042       .  S
N628        H644   1.043       .  S
C630        C631   1.400       .  A
C630        H635   1.082       .  S
C631        C632   1.411       .  A
C631        N636   1.433       .  S
C632        C633   1.401       .  A
C633        C634   1.409       .  A
C633        H637   1.084       .  S
C634        N638   1.439       .  S
N636        H639   1.046       .  S
N636        H640   1.046       .  S
N638        H641   1.046       .  S
N638        H642   1.042       .  S
C647        C648   1.408       .  A
C647        C652   1.403       .  A
C648        C649   1.402       .  A
C648        N653   1.438       .  S
C649        C650   1.404       .  A
C649        H654   1.083       .  S
C650        C655   1.479       .  S
C650        C651   1.409       .  A
C651        C652   1.403       .  A
C651        N656   1.438       .  S
C652        H657   1.084       .  S
N653        H673   1.046       .  S
N653        H674   1.046       .  S
C655        C658   1.403       .  A
C655        C662   1.409       .  A
N656        H671   1.046       .  S
N656        H672   1.046       .  S
C658        C659   1.404       .  A
C658        H663   1.084       .  S
C659        C660   1.407       .  A
C659        N664   1.436       .  S
C660        C661   1.402       .  A
C661        C662   1.403       .  A
C661        H665   1.084       .  S
C662        N666   1.438       .  S
N664        H667   1.046       .  S
N664        H668   1.045       .  S
N666        H669   1.045       .  S
N666        H670   1.045       .  S
C675        C676   1.416       .  A
C675        C680   1.400       .  A
C676        C677   1.403       .  A
C676        N681   1.437       .  S
C677        C678   1.403       .  A
C677        H682   1.084       .  S
C678        C683   1.485       .  S
C678        C679   1.415       .  A
C679        C680   1.396       .  A
C679        N684   1.433       .  S
C680        H685   1.084       .  S
N681        H701   1.044       .  S
N681        H702   1.044       .  S
C683        C686   1.396       .  A
C683        C690   1.412       .  A
N684        H699   1.044       .  S
N684        H700   1.046       .  S
C686        C687   1.401       .  A
C686        H691   1.084       .  S
C687        C688   1.420       .  A
C687        N692   1.433       .  S
C688        C689   1.406       .  A
C689        C690   1.411       .  A
C689        H693   1.083       .  S
C690        N694   1.436       .  S
N692        H695   1.046       .  S
N692        H696   1.046       .  S
N694        H697   1.045       .  S
N694        H698   1.043       .  S
C703        C704   1.406       .  A
C703        C708   1.405       .  A
C704        C705   1.405       .  A
C704        N709   1.437       .  S
C705        C706   1.404       .  A
C705        H710   1.082       .  S
C706        C711   1.486       .  S
C706        C707   1.409       .  A
C707        C708   1.409       .  A
C707        N712   1.437       .  S
C708        H713   1.084       .  S
N709        H729   1.046       .  S
N709        H730   1.046       .  S
C711        C714   1.402       .  A
C711        C718   1.418       .  A
N712        H727   1.046       .  S
N712        H728   1.046       .  S
C714        C715   1.403       .  A
C714        H719   1.084       .  S
C715        C716   1.418       .  A
C715        N720   1.438       .  S
C716        C717   1.402       .  A
C717        C718   1.403       .  A
C717        H721   1.084       .  S
C718        N722   1.439       .  S
N720        H723   1.045       .  S
N720        H724   1.044       .  S
N722        H725   1.046       .  S
N722        H726   1.043       .  S
C731        C732   1.415       .  A
C731        C736   1.406       .  A
C732        C733   1.408       .  A
C732        N737   1.438       .  S
C733        C734   1.406       .  A
C733        H738   1.082       .  S
C734        C739   1.487       .  S
C734        C735   1.408       .  A
C735        C736   1.401       .  A
C735        N740   1.438       .  S
C736        H741   1.083       .  S
N737        H757   1.045       .  S
N737        H758   1.045       .  S
C739        C742   1.405       .  A
C739        C746   1.410       .  A
N740        H755   1.046       .  S
N740        H756   1.046       .  S
C742        C743   1.401       .  A
C742        H747   1.084       .  S
C743        C744   1.414       .  A
C743        N748   1.438       .  S
C744        C745   1.404       .  A
C745        C746   1.405       .  A
C745        H749   1.083   1_655  S
C746        N750   1.437       .  S
N748        H751   1.045       .  S
N748        H752   1.043       .  S
N750        H753   1.046       .  S
N750        H754   1.045       .  S
C759        C760   1.408       .  A
C759        C764   1.408       .  A
C760        C761   1.408       .  A
C760        N765   1.436       .  S
C761        C762   1.404       .  A
C761        H766   1.082       .  S
C762        C767   1.491       .  S
C762        C763   1.409       .  A
C763        C764   1.412       .  A
C763        N768   1.437       .  S
C764        H769   1.084       .  S
N765        H785   1.045       .  S
N765        H786   1.044       .  S
C767        C770   1.405       .  A
C767        C774   1.409       .  A
N768        H783   1.046       .  S
N768        H784   1.046       .  S
C770        C771   1.410       .  A
C770        H775   1.084       .  S
C771        C772   1.408       .  A
C771        N776   1.431       .  S
C772        C773   1.406       .  A
C773        C774   1.409       .  A
C773        H777   1.084       .  S
C774        N778   1.436       .  S
N776        H779   1.045       .  S
N776        H780   1.045       .  S
N778        H781   1.046       .  S
N778        H782   1.046       .  S
C787        C788   1.417       .  A
C787        C792   1.411       .  A
C788        C789   1.413       .  A
C788        N793   1.437       .  S
C789        C790   1.405       .  A
C789        H794   1.084       .  S
C790        C795   1.480       .  S
C790        C791   1.403       .  A
C791        C792   1.398       .  A
C791        N796   1.439       .  S
C792        H797   1.083       .  S
N793        H813   1.045       .  S
N793        H814   1.046       .  S
C795        C798   1.402       .  A
C795        C802   1.408       .  A
N796        H811   1.045       .  S
N796        H812   1.045       .  S
C798        C799   1.397       .  A
C798        H803   1.084       .  S
C799        C800   1.415       .  A
C799        N804   1.439       .  S
C800        C801   1.402       .  A
C801        C802   1.407       .  A
C801        H805   1.083       .  S
C802        N806   1.437       .  S
N804        H807   1.045       .  S
N804        H808   1.043       .  S
N806        H809   1.046       .  S
N806        H810   1.046       .  S
C815        C816   1.407       .  A
C815        C820   1.400       .  A
C816        C817   1.403       .  A
C816        N821   1.438       .  S
C817        C818   1.403       .  A
C817        H822   1.084       .  S
C818        C823   1.488       .  S
C818        C819   1.415       .  A
C819        C820   1.407       .  A
C819        N824   1.437       .  S
C820        H825   1.084       .  S
N821        H841   1.046       .  S
N821        H842   1.046       .  S
C823        C826   1.403       .  A
C823        C830   1.420       .  A
N824        H839   1.045       .  S
N824        H840   1.042       .  S
C826        C827   1.398       .  A
C826        H831   1.084       .  S
C827        C828   1.416       .  A
C827        N832   1.438       .  S
C828        C829   1.402       .  A
C829        C830   1.405       .  A
C829        H833   1.084       .  S
C830        N834   1.439       .  S
N832        H835   1.046       .  S
N832        H836   1.043       .  S
N834        H837   1.046       .  S
N834        H838   1.043       .  S
C843        C844   1.416       .  A
C843        C848   1.401       .  A
C844        C845   1.401       .  A
C844        N849   1.438       .  S
C845        C846   1.403       .  A
C845        H850   1.084       .  S
C846        C851   1.485       .  S
C846        C847   1.417       .  A
C847        C848   1.402       .  A
C847        N852   1.438       .  S
C848        H853   1.084       .  S
N849        H869   1.044       .  S
N849        H870   1.046       .  S
C851        C854   1.406       .  A
C851        C858   1.407       .  A
N852        H867   1.045       .  S
N852        H868   1.043       .  S
C854        C855   1.409       .  A
C854        H859   1.084       .  S
C855        C856   1.411       .  A
C855        N860   1.437       .  S
C856        C857   1.404       .  A
C857        C858   1.403       .  A
C857        H861   1.084       .  S
C858        N862   1.437       .  S
N860        H863   1.046       .  S
N860        H864   1.046       .  S
N862        H865   1.046       .  S
N862        H866   1.046       .  S
C871        C872   1.408   1_545  A
C871        C876   1.402   1_545  A
C872        C873   1.406       .  A
C872        N877   1.438   1_465  S
C873        C874   1.406       .  A
C873        H878   1.084   1_455  S
C874        C879   1.489       .  S
C874        C875   1.412       .  A
C875        C876   1.408       .  A
C875        N880   1.438       .  S
C876        H881   1.084       .  S
N877        H897   1.045       .  S
N877        H898   1.046       .  S
C879        C882   1.405       .  A
C879        C886   1.420       .  A
N880        H895   1.046       .  S
N880        H896   1.046       .  S
C882        C883   1.403       .  A
C882        H887   1.084       .  S
C883        C884   1.415       .  A
C883        N888   1.438       .  S
C884        C885   1.399       .  A
C885        C886   1.400       .  A
C885        H889   1.084       .  S
C886        N890   1.439       .  S
N888        H891   1.045   1_455  S
N888        H892   1.044       .  S
N890        H893   1.046       .  S
N890        H894   1.043       .  S
C899        C900   1.414       .  A
C899        C904   1.409       .  A
C900        C901   1.401       .  A
C900        N905   1.431       .  S
C901        C902   1.402       .  A
C901        H906   1.084       .  S
C902        C907   1.477       .  S
C902        C903   1.405       .  A
C903        C904   1.404       .  A
C903        N908   1.439       .  S
C904        H909   1.084       .  S
N905        H925   1.045       .  S
N905        H926   1.044       .  S
C907        C910   1.400       .  A
C907        C914   1.411       .  A
N908        H923   1.046       .  S
N908        H924   1.044       .  S
C910        C911   1.403       .  A
C910        H915   1.084       .  S
C911        C912   1.418       .  A
C911        N916   1.439       .  S
C912        C913   1.401       .  A
C913        C914   1.402       .  A
C913        H917   1.084       .  S
C914        N918   1.439       .  S
N916        H919   1.044       .  S
N916        H920   1.043       .  S
N918        H921   1.046       .  S
N918        H922   1.044       .  S
C927        C928   1.420       .  A
C927        C932   1.402       .  A
C928        C929   1.400       .  A
C928        N933   1.438       .  S
C929        C930   1.399       .  A
C929        H934   1.084       .  S
C930        C935   1.479       .  S
C930        C931   1.411       .  A
C931        C932   1.401       .  A
C931        N936   1.432       .  S
C932        H937   1.084       .  S
N933        H953   1.044       .  S
N933        H954   1.045       .  S
C935        C938   1.405       .  A
C935        C942   1.404       .  A
N936        H951   1.045       .  S
N936        H952   1.045       .  S
C938        C939   1.412       .  A
C938        H943   1.084       .  S
C939        C940   1.414       .  A
C939        N944   1.437       .  S
C940        C941   1.408       .  A
C941        C942   1.399       .  A
C941        H945   1.084       .  S
C942        N946   1.439       .  S
N944        H947   1.046       .  S
N944        H948   1.045       .  S
N946        H949   1.046       .  S
N946        H950   1.046       .  S
C955        C956   1.414       .  A
C955        C960   1.399       .  A
C956        C957   1.407       .  A
C956        N961   1.437   1_545  S
C957        C958   1.402       .  A
C957        H962   1.084       .  S
C958        C963   1.488       .  S
C958        C959   1.420       .  A
C959        C960   1.402       .  A
C959        N964   1.436       .  S
C960        H965   1.083       .  S
N961        H981   1.045       .  S
N961        H982   1.046       .  S
C963        C966   1.403       .  A
C963        C970   1.411       .  A
N964        H979   1.045       .  S
N964        H980   1.041       .  S
C966        C967   1.404       .  A
C966        H971   1.084       .  S
C967        C968   1.415       .  A
C967        N972   1.437       .  S
C968        C969   1.404       .  A
C969        C970   1.408       .  A
C969        H973   1.084       .  S
C970        N974   1.438       .  S
N972        H975   1.044       .  S
N972        H976   1.044       .  S
N974        H977   1.046       .  S
N974        H978   1.044       .  S
C983        C984   1.409       .  A
C983        C988   1.402       .  A
C984        C985   1.398       .  A
C984        N989   1.432       .  S
C985        C986   1.401       .  A
C985        H990   1.084       .  S
C986        C991   1.489       .  S
C986        C987   1.418       .  A
C987        C988   1.410       .  A
C987        N992   1.438       .  S
C988        H993   1.084       .  S
N989       H1009   1.046       .  S
N989       H1010   1.045       .  S
C991        C994   1.404       .  A
C991        C998   1.417       .  A
N992       H1007   1.046       .  S
N992       H1008   1.042       .  S
C994        C995   1.405       .  A
C994        H999   1.083       .  S
C995        C996   1.408       .  A
C995       N1000   1.437       .  S
C996        C997   1.399       .  A
C997        C998   1.405       .  A
C997       H1001   1.083       .  S
C998       N1002   1.439       .  S
N1000      H1003   1.045       .  S
N1000      H1004   1.045       .  S
N1002      H1005   1.046       .  S
N1002      H1006   1.044       .  S
C1011      C1012   1.424       .  A
C1011      C1016   1.408       .  A
C1012      C1013   1.406       .  A
C1012      N1017   1.439       .  S
C1013      C1014   1.398       .  A
C1013      H1018   1.084       .  S
C1014      C1019   1.489       .  S
C1014      C1015   1.410       .  A
C1015      C1016   1.412       .  A
C1015      N1020   1.436       .  S
C1016      H1021   1.083       .  S
N1017      H1037   1.046   1_545  S
N1017      H1038   1.046       .  S
C1019      C1022   1.404       .  A
C1019      C1026   1.414       .  A
N1020      H1035   1.044       .  S
N1020      H1036   1.044       .  S
C1022      C1023   1.408       .  A
C1022      H1027   1.084       .  S
C1023      C1024   1.420       .  A
C1023      N1028   1.438       .  S
C1024      C1025   1.402       .  A
C1025      C1026   1.399       .  A
C1025      H1029   1.084       .  S
C1026      N1030   1.433       .  S
N1028      H1031   1.046       .  S
N1028      H1032   1.043       .  S
N1030      H1033   1.044       .  S
N1030      H1034   1.045       .  S
C1039      C1040   1.419       .  A
C1039      C1044   1.400       .  A
C1040      C1041   1.407       .  A
C1040      N1045   1.438       .  S
C1041      C1042   1.404       .  A
C1041      H1046   1.083       .  S
C1042      C1047   1.493       .  S
C1042      C1043   1.418       .  A
C1043      C1044   1.398       .  A
C1043      N1048   1.433       .  S
C1044      H1049   1.084       .  S
N1045      H1065   1.044       .  S
N1045      H1066   1.046   1_556  S
C1047      C1050   1.400       .  A
C1047      C1054   1.417       .  A
N1048      H1063   1.044       .  S
N1048      H1064   1.044       .  S
C1050      C1051   1.406       .  A
C1050      H1055   1.084       .  S
C1051      C1052   1.417       .  A
C1051      N1056   1.438       .  S
C1052      C1053   1.404       .  A
C1053      C1054   1.405       .  A
C1053      H1057   1.084       .  S
C1054      N1058   1.431   1_556  S
N1056      H1059   1.046       .  S
N1056      H1060   1.046       .  S
N1058      H1061   1.044   1_554  S
N1058      H1062   1.043       .  S
C1067      C1068   1.416   1_556  A
C1067      C1072   1.401       .  A
C1068      C1069   1.399   1_554  A
C1068      N1073   1.439       .  S
C1069      C1070   1.404       .  A
C1069      H1074   1.084   1_556  S
C1070      C1075   1.488       .  S
C1070      C1071   1.419       .  A
C1071      C1072   1.404       .  A
C1071      N1076   1.438       .  S
C1072      H1077   1.084       .  S
N1073      H1093   1.044       .  S
N1073      H1094   1.045       .  S
C1075      C1078   1.408       .  A
C1075      C1082   1.408       .  A
N1076      H1091   1.046       .  S
N1076      H1092   1.042       .  S
C1078      C1079   1.413       .  A
C1078      H1083   1.084   1_556  S
C1079      C1080   1.411       .  A
C1079      N1084   1.437       .  S
C1080      C1081   1.404       .  A
C1081      C1082   1.401       .  A
C1081      H1085   1.084       .  S
C1082      N1086   1.438       .  S
N1084      H1087   1.046   1_556  S
N1084      H1088   1.044   1_556  S
N1086      H1089   1.046       .  S
N1086      H1090   1.046       .  S
C1095      C1096   1.409       .  A
C1095      C1100   1.402       .  A
C1096      C1097   1.401       .  A
C1096      N1101   1.433       .  S
C1097      C1098   1.403       .  A
C1097      H1102   1.084       .  S
C1098      C1103   1.493       .  S
C1098      C1099   1.416       .  A
C1099      C1100   1.411       .  A
C1099      N1104   1.437       .  S
C1100      H1105   1.084       .  S
N1101      H1121   1.046       .  S
N1101      H1122   1.045       .  S
C1103      C1106   1.407       .  A
C1103      C1110   1.416       .  A
N1104      H1119   1.046       .  S
N1104      H1120   1.044       .  S
C1106      C1107   1.412       .  A
C1106      H1111   1.083       .  S
C1107      C1108   1.410       .  A
C1107      N1112   1.436       .  S
C1108      C1109   1.398       .  A
C1109      C1110   1.401       .  A
C1109      H1113   1.083       .  S
C1110      N1114   1.439       .  S
N1112      H1115   1.046       .  S
N1112      H1116   1.045       .  S
N1114      H1117   1.046       .  S
N1114      H1118   1.046       .  S
C1123      C1124   1.406       .  A
C1123      C1128   1.396       .  A
C1124      C1125   1.410       .  A
C1124      N1129   1.432       .  S
C1125      C1126   1.410       .  A
C1125      H1130   1.081       .  S
C1126      C1131   1.502       .  S
C1126      C1127   1.419       .  A
C1127      C1128   1.402       .  A
C1127      N1132   1.437       .  S
C1128      H1133   1.084       .  S
N1129      H1149   1.045       .  S
N1129      H1150   1.046       .  S
C1131      C1134   1.410       .  A
C1131      C1138   1.420       .  A
N1132      H1147   1.045       .  S
N1132      H1148   1.041       .  S
C1134      C1135   1.408       .  A
C1134      H1139   1.084       .  S
C1135      C1136   1.406       .  A
C1135      N1140   1.437       .  S
C1136      C1137   1.404       .  A
C1137      C1138   1.402       .  A
C1137      H1141   1.084       .  S
C1138      N1142   1.433       .  S
N1140      H1143   1.046       .  S
N1140      H1144   1.045       .  S
N1142      H1145   1.043       .  S
N1142      H1146   1.043       .  S
C1151      C1152   1.414       .  A
C1151      C1156   1.406       .  A
C1152      C1153   1.411       .  A
C1152      N1157   1.438       .  S
C1153      C1154   1.409       .  A
C1153      H1158   1.083       .  S
C1154      C1159   1.497       .  S
C1154      C1155   1.412       .  A
C1155      C1156   1.401       .  A
C1155      N1160   1.438       .  S
C1156      H1161   1.083       .  S
N1157      H1177   1.046       .  S
N1157      H1178   1.046       .  S
C1159      C1162   1.408       .  A
C1159      C1166   1.415       .  A
N1160      H1175   1.046       .  S
N1160      H1176   1.045       .  S
C1162      C1163   1.397       .  A
C1162      H1167   1.083       .  S
C1163      C1164   1.408       .  A
C1163      N1168   1.432       .  S
C1164      C1165   1.403       .  A
C1165      C1166   1.409       .  A
C1165      H1169   1.083       .  S
C1166      N1170   1.437       .  S
N1168      H1171   1.043       .  S
N1168      H1172   1.045       .  S
N1170      H1173   1.046       .  S
N1170      H1174   1.045       .  S
C1179      C1180   1.416       .  A
C1179      C1184   1.400   1_554  A
C1180      C1181   1.402       .  A
C1180      N1185   1.438       .  S
C1181      C1182   1.401   1_554  A
C1181      H1186   1.084       .  S
C1182      C1187   1.478       .  S
C1182      C1183   1.409       .  A
C1183      C1184   1.402       .  A
C1183      N1188   1.437       .  S
C1184      H1189   1.084       .  S
N1185      H1205   1.044       .  S
N1185      H1206   1.046       .  S
C1187      C1190   1.402   1_556  A
C1187      C1194   1.403       .  A
N1188      H1203   1.046       .  S
N1188      H1204   1.045       .  S
C1190      C1191   1.407       .  A
C1190      H1195   1.079       .  S
C1191      C1192   1.411   1_554  A
C1191      N1196   1.437       .  S
C1192      C1193   1.410       .  A
C1193      C1194   1.404       .  A
C1193      H1197   1.084       .  S
C1194      N1198   1.438       .  S
N1196      H1199   1.045       .  S
N1196      H1200   1.045       .  S
N1198      H1201   1.046       .  S
N1198      H1202   1.046       .  S
C1207      C1208   1.406       .  A
C1207      C1212   1.406       .  A
C1208      C1209   1.405       .  A
C1208      N1213   1.437       .  S
C1209      C1210   1.408       .  A
C1209      H1214   1.084       .  S
C1210      C1215   1.499       .  S
C1210      C1211   1.420       .  A
C1211      C1212   1.411       .  A
C1211      N1216   1.438       .  S
C1212      H1217   1.083       .  S
N1213      H1233   1.046       .  S
N1213      H1234   1.045       .  S
C1215      C1218   1.400       .  A
C1215      C1222   1.416       .  A
N1216      H1231   1.046       .  S
N1216      H1232   1.043       .  S
C1218      C1219   1.403       .  A
C1218      H1223   1.084       .  S
C1219      C1220   1.418       .  A
C1219      N1224   1.439       .  S
C1220      C1221   1.403       .  A
C1221      C1222   1.412       .  A
C1221      H1225   1.084       .  S
C1222      N1226   1.430       .  S
N1224      H1227   1.046       .  S
N1224      H1228   1.045       .  S
N1226      H1229   1.042       .  S
N1226      H1230   1.045       .  S
C1235      C1236   1.410       .  A
C1235      C1240   1.396       .  A
C1236      C1237   1.409       .  A
C1236      N1241   1.438       .  S
C1237      C1238   1.405       .  A
C1237      H1242   1.083       .  S
C1238      C1243   1.486       .  S
C1238      C1239   1.411       .  A
C1239      C1240   1.399       .  A
C1239      N1244   1.431   1_556  S
C1240      H1245   1.084       .  S
N1241      H1261   1.046       .  S
N1241      H1262   1.046       .  S
C1243      C1246   1.405       .  A
C1243      C1250   1.412       .  A
N1244      H1259   1.045       .  S
N1244      H1260   1.045       .  S
C1246      C1247   1.405       .  A
C1246      H1251   1.084       .  S
C1247      C1248   1.407       .  A
C1247      N1252   1.437       .  S
C1248      C1249   1.403       .  A
C1249      C1250   1.407       .  A
C1249      H1253   1.083   1_556  S
C1250      N1254   1.438       .  S
N1252      H1255   1.046       .  S
N1252      H1256   1.045       .  S
N1254      H1257   1.046       .  S
N1254      H1258   1.043       .  S
C1263      C1264   1.410       .  A
C1263      C1268   1.401       .  A
C1264      C1265   1.408       .  A
C1264      N1269   1.437       .  S
C1265      C1266   1.403       .  A
C1265      H1270   1.083       .  S
C1266      C1271   1.484       .  S
C1266      C1267   1.410       .  A
C1267      C1268   1.400       .  A
C1267      N1272   1.432       .  S
C1268      H1273   1.084       .  S
N1269      H1289   1.045       .  S
N1269      H1290   1.045       .  S
C1271      C1274   1.408       .  A
C1271      C1278   1.414       .  A
N1272      H1287   1.045       .  S
N1272      H1288   1.045       .  S
C1274      C1275   1.413       .  A
C1274      H1279   1.084       .  S
C1275      C1276   1.413       .  A
C1275      N1280   1.437       .  S
C1276      C1277   1.406       .  A
C1277      C1278   1.396       .  A
C1277      H1281   1.084       .  S
C1278      N1282   1.440       .  S
N1280      H1283   1.046       .  S
N1280      H1284   1.045       .  S
N1282      H1285   1.046       .  S
N1282      H1286   1.042       .  S
C1291      C1292   1.407       .  A
C1291      C1296   1.403       .  A
C1292      C1293   1.405       .  A
C1292      N1297   1.432       .  S
C1293      C1294   1.404       .  A
C1293      H1298   1.084       .  S
C1294      C1299   1.483       .  S
C1294      C1295   1.412       .  A
C1295      C1296   1.400       .  A
C1295      N1300   1.432       .  S
C1296      H1301   1.083       .  S
N1297      H1317   1.045       .  S
N1297      H1318   1.045       .  S
C1299      C1302   1.400       .  A
C1299      C1306   1.413       .  A
N1300      H1315   1.045       .  S
N1300      H1316   1.045       .  S
C1302      C1303   1.407       .  A
C1302      H1307   1.084       .  S
C1303      C1304   1.412       .  A
C1303      N1308   1.437       .  S
C1304      C1305   1.400       .  A
C1305      C1306   1.407       .  A
C1305      H1309   1.084       .  S
C1306      N1310   1.436       .  S
N1308      H1311   1.046   1_545  S
N1308      H1312   1.046       .  S
N1310      H1313   1.045       .  S
N1310      H1314   1.046       .  S
C1319      C1320   1.420       .  A
C1319      C1324   1.404       .  A
C1320      C1321   1.409       .  A
C1320      N1325   1.438       .  S
C1321      C1322   1.403       .  A
C1321      H1326   1.083       .  S
C1322      C1327   1.498       .  S
C1322      C1323   1.415       .  A
C1323      C1324   1.408       .  A
C1323      N1328   1.436       .  S
C1324      H1329   1.083       .  S
N1325      H1345   1.046   1_565  S
N1325      H1346   1.046       .  S
C1327      C1330   1.407       .  A
C1327      C1334   1.415       .  A
N1328      H1343   1.046       .  S
N1328      H1344   1.043       .  S
C1330      C1331   1.405       .  A
C1330      H1335   1.084       .  S
C1331      C1332   1.415       .  A
C1331      N1336   1.438       .  S
C1332      C1333   1.402       .  A
C1333      C1334   1.407       .  A
C1333      H1337   1.084       .  S
C1334      N1338   1.438       .  S
N1336      H1339   1.046       .  S
N1336      H1340   1.043       .  S
N1338      H1341   1.046       .  S
N1338      H1342   1.043       .  S
C1347      C1348   1.410       .  A
C1347      C1352   1.403       .  A
C1348      C1349   1.401       .  A
C1348      N1353   1.433       .  S
C1349      C1350   1.402       .  A
C1349      H1354   1.084       .  S
C1350      C1355   1.491       .  S
C1350      C1351   1.416       .  A
C1351      C1352   1.411       .  A
C1351      N1356   1.438   1_455  S
C1352      H1357   1.082       .  S
N1353      H1373   1.046       .  S
N1353      H1374   1.046       .  S
C1355      C1358   1.404       .  A
C1355      C1362   1.416       .  A
N1356      H1371   1.046       .  S
N1356      H1372   1.044       .  S
C1358      C1359   1.405       .  A
C1358      H1363   1.084       .  S
C1359      C1360   1.418       .  A
C1359      N1364   1.438   1_455  S
C1360      C1361   1.398       .  A
C1361      C1362   1.403       .  A
C1361      H1365   1.084       .  S
C1362      N1366   1.439       .  S
N1364      H1367   1.046       .  S
N1364      H1368   1.044       .  S
N1366      H1369   1.046       .  S
N1366      H1370   1.046       .  S
C1375      C1376   1.416       .  A
C1375      C1380   1.404       .  A
C1376      C1377   1.406       .  A
C1376      N1381   1.438       .  S
C1377      C1378   1.406       .  A
C1377      H1382   1.084       .  S
C1378      C1383   1.492       .  S
C1378      C1379   1.412       .  A
C1379      C1380   1.404       .  A
C1379      N1384   1.438       .  S
C1380      H1385   1.084       .  S
N1381      H1401   1.042       .  S
N1381      H1402   1.045       .  S
C1383      C1386   1.403       .  A
C1383      C1390   1.416       .  A
N1384      H1399   1.046       .  S
N1384      H1400   1.045       .  S
C1386      C1387   1.404       .  A
C1386      H1391   1.084       .  S
C1387      C1388   1.412       .  A
C1387      N1392   1.438       .  S
C1388      C1389   1.402       .  A
C1389      C1390   1.411       .  A
C1389      H1393   1.084       .  S
C1390      N1394   1.438       .  S
N1392      H1395   1.046       .  S
N1392      H1396   1.046       .  S
N1394      H1397   1.045       .  S
N1394      H1398   1.044       .  S
C1403      C1404   1.416       .  A
C1403      C1408   1.404       .  A
C1404      C1405   1.402       .  A
C1404      N1409   1.438   1_556  S
C1405      C1406   1.401       .  A
C1405      H1410   1.084       .  S
C1406      C1411   1.486       .  S
C1406      C1407   1.411       .  A
C1407      C1408   1.408       .  A
C1407      N1412   1.437       .  S
C1408      H1413   1.084       .  S
N1409      H1429   1.044       .  S
N1409      H1430   1.044       .  S
C1411      C1414   1.404       .  A
C1411      C1418   1.407       .  A
N1412      H1427   1.046       .  S
N1412      H1428   1.046       .  S
C1414      C1415   1.409       .  A
C1414      H1419   1.082   1_556  S
C1415      C1416   1.412       .  A
C1415      N1420   1.437       .  S
C1416      C1417   1.410       .  A
C1417      C1418   1.406       .  A
C1417      H1421   1.084       .  S
C1418      N1422   1.438       .  S
N1420      H1423   1.046   1_556  S
N1420      H1424   1.046   1_556  S
N1422      H1425   1.046       .  S
N1422      H1426   1.046       .  S
C1431      C1432   1.412       .  A
C1431      C1436   1.403       .  A
C1432      C1433   1.399       .  A
C1432      N1437   1.439       .  S
C1433      C1434   1.408       .  A
C1433      H1438   1.084       .  S
C1434      C1439   1.491       .  S
C1434      C1435   1.417       .  A
C1435      C1436   1.405       .  A
C1435      N1440   1.438       .  S
C1436      H1441   1.084       .  S
N1437      H1457   1.044       .  S
N1437      H1458   1.045       .  S
C1439      C1442   1.401       .  A
C1439      C1446   1.418       .  A
N1440      H1455   1.046       .  S
N1440      H1456   1.044       .  S
C1442      C1443   1.402       .  A
C1442      H1447   1.084       .  S
C1443      C1444   1.413       .  A
C1443      N1448   1.438       .  S
C1444      C1445   1.402       .  A
C1445      C1446   1.411       .  A
C1445      H1449   1.084       .  S
C1446      N1450   1.438       .  S
N1448      H1451   1.046       .  S
N1448      H1452   1.046       .  S
N1450      H1453   1.046   1_455  S
N1450      H1454   1.043       .  S
C1459      C1460   1.417       .  A
C1459      C1464   1.407       .  A
C1460      C1461   1.411       .  A
C1460      N1465   1.437   1_556  S
C1461      C1462   1.406       .  A
C1461      H1466   1.083   1_556  S
C1462      C1467   1.491       .  S
C1462      C1463   1.408       .  A
C1463      C1464   1.402       .  A
C1463      N1468   1.438       .  S
C1464      H1469   1.083       .  S
N1465      H1485   1.045       .  S
N1465      H1486   1.045       .  S
C1467      C1470   1.406       .  A
C1467      C1474   1.419   1_556  A
N1468      H1483   1.046       .  S
N1468      H1484   1.046       .  S
C1470      C1471   1.400       .  A
C1470      H1475   1.084       .  S
C1471      C1472   1.413   1_556  A
C1471      N1476   1.439       .  S
C1472      C1473   1.403       .  A
C1473      C1474   1.404       .  A
C1473      H1477   1.084       .  S
C1474      N1478   1.439       .  S
N1476      H1479   1.046       .  S
N1476      H1480   1.043       .  S
N1478      H1481   1.045       .  S
N1478      H1482   1.042       .  S
C1487      C1488   1.410       .  A
C1487      C1492   1.403       .  A
C1488      C1489   1.404       .  A
C1488      N1493   1.438       .  S
C1489      C1490   1.403       .  A
C1489      H1494   1.084       .  S
C1490      C1495   1.488       .  S
C1490      C1491   1.415       .  A
C1491      C1492   1.409       .  A
C1491      N1496   1.439       .  S
C1492      H1497   1.084       .  S
N1493      H1513   1.046       .  S
N1493      H1514   1.046       .  S
C1495      C1498   1.406       .  A
C1495      C1502   1.418       .  A
N1496      H1511   1.046   1_655  S
N1496      H1512   1.041   1_655  S
C1498      C1499   1.400       .  A
C1498      H1503   1.084       .  S
C1499      C1500   1.412       .  A
C1499      N1504   1.438       .  S
C1500      C1501   1.402       .  A
C1501      C1502   1.402       .  A
C1501      H1505   1.084       .  S
C1502      N1506   1.439       .  S
N1504      H1507   1.045       .  S
N1504      H1508   1.043       .  S
N1506      H1509   1.046       .  S
N1506      H1510   1.043       .  S
C1515      C1516   1.419       .  A
C1515      C1520   1.410       .  A
C1516      C1517   1.412       .  A
C1516      N1521   1.437       .  S
C1517      C1518   1.405       .  A
C1517      H1522   1.083       .  S
C1518      C1523   1.484       .  S
C1518      C1519   1.405       .  A
C1519      C1520   1.398       .  A
C1519      N1524   1.439       .  S
C1520      H1525   1.083       .  S
N1521      H1541   1.045       .  S
N1521      H1542   1.045       .  S
C1523      C1526   1.407       .  A
C1523      C1530   1.408       .  A
N1524      H1539   1.045       .  S
N1524      H1540   1.046       .  S
C1526      C1527   1.404       .  A
C1526      H1531   1.084       .  S
C1527      C1528   1.405       .  A
C1527      N1532   1.437       .  S
C1528      C1529   1.405       .  A
C1529      C1530   1.406       .  A
C1529      H1533   1.083   1_655  S
C1530      N1534   1.437       .  S
N1532      H1535   1.046       .  S
N1532      H1536   1.045       .  S
N1534      H1537   1.046   1_655  S
N1534      H1538   1.045       .  S
C1543      C1544   1.416       .  A
C1543      C1548   1.400       .  A
C1544      C1545   1.405       .  A
C1544      N1549   1.438       .  S
C1545      C1546   1.405       .  A
C1545      H1550   1.084       .  S
C1546      C1551   1.490       .  S
C1546      C1547   1.415       .  A
C1547      C1548   1.403       .  A
C1547      N1552   1.439       .  S
C1548      H1553   1.084       .  S
N1549      H1569   1.044       .  S
N1549      H1570   1.045       .  S
C1551      C1554   1.401       .  A
C1551      C1558   1.415       .  A
N1552      H1567   1.046       .  S
N1552      H1568   1.046       .  S
C1554      C1555   1.401       .  A
C1554      H1559   1.084       .  S
C1555      C1556   1.413       .  A
C1555      N1560   1.433       .  S
C1556      C1557   1.403       .  A
C1557      C1558   1.411       .  A
C1557      H1561   1.082       .  S
C1558      N1562   1.437       .  S
N1560      H1563   1.045       .  S
N1560      H1564   1.046       .  S
N1562      H1565   1.045       .  S
N1562      H1566   1.044       .  S
C1571      C1572   1.408       .  A
C1571      C1576   1.402       .  A
C1572      C1573   1.407       .  A
C1572      N1577   1.437       .  S
C1573      C1574   1.406       .  A
C1573      H1578   1.084       .  S
C1574      C1579   1.484       .  S
C1574      C1575   1.414       .  A
C1575      C1576   1.394       .  A
C1575      N1580   1.433       .  S
C1576      H1581   1.084   1_455  S
N1577      H1597   1.044       .  S
N1577      H1598   1.046       .  S
C1579      C1582   1.401       .  A
C1579      C1586   1.415       .  A
N1580      H1595   1.043       .  S
N1580      H1596   1.043   1_455  S
C1582      C1583   1.403       .  A
C1582      H1587   1.083       .  S
C1583      C1584   1.410       .  A
C1583      N1588   1.438       .  S
C1584      C1585   1.399       .  A
C1585      C1586   1.406       .  A
C1585      H1589   1.084       .  S
C1586      N1590   1.437       .  S
N1588      H1591   1.046       .  S
N1588      H1592   1.046       .  S
N1590      H1593   1.046   1_455  S
N1590      H1594   1.041   1_455  S
C1599      C1600   1.408       .  A
C1599      C1604   1.401       .  A
C1600      C1601   1.404       .  A
C1600      N1605   1.438       .  S
C1601      C1602   1.405       .  A
C1601      H1606   1.083       .  S
C1602      C1607   1.489       .  S
C1602      C1603   1.411       .  A
C1603      C1604   1.406       .  A
C1603      N1608   1.432       .  S
C1604      H1609   1.084       .  S
N1605      H1625   1.045       .  S
N1605      H1626   1.046       .  S
C1607      C1610   1.407       .  A
C1607      C1614   1.408       .  A
N1608      H1623   1.046       .  S
N1608      H1624   1.046       .  S
C1610      C1611   1.408       .  A
C1610      H1615   1.084       .  S
C1611      C1612   1.410       .  A
C1611      N1616   1.438       .  S
C1612      C1613   1.404       .  A
C1613      C1614   1.402       .  A
C1613      H1617   1.084       .  S
C1614      N1618   1.432       .  S
N1616      H1619   1.045       .  S
N1616      H1620   1.045       .  S
N1618      H1621   1.045       .  S
N1618      H1622   1.045       .  S
C1627      C1628   1.409       .  A
C1627      C1632   1.402       .  A
C1628      C1629   1.406       .  A
C1628      N1633   1.437       .  S
C1629      C1630   1.404       .  A
C1629      H1634   1.084       .  S
C1630      C1635   1.487       .  S
C1630      C1631   1.413       .  A
C1631      C1632   1.402       .  A
C1631      N1636   1.432       .  S
C1632      H1637   1.084       .  S
N1633      H1653   1.046       .  S
N1633      H1654   1.045       .  S
C1635      C1638   1.407       .  A
C1635      C1642   1.399       .  A
N1636      H1651   1.044       .  S
N1636      H1652   1.046       .  S
C1638      C1639   1.413       .  A
C1638      H1643   1.080       .  S
C1639      C1640   1.415       .  A
C1639      N1644   1.437       .  S
C1640      C1641   1.414       .  A
C1641      C1642   1.398       .  A
C1641      H1645   1.083       .  S
C1642      N1646   1.433       .  S
N1644      H1647   1.046       .  S
N1644      H1648   1.045       .  S
N1646      H1649   1.046       .  S
N1646      H1650   1.045       .  S
C1655      C1656   1.416       .  A
C1655      C1660   1.405       .  A
C1656      C1657   1.399       .  A
C1656      N1661   1.439       .  S
C1657      C1658   1.405       .  A
C1657      H1662   1.084       .  S
C1658      C1663   1.486       .  S
C1658      C1659   1.412       .  A
C1659      C1660   1.399       .  A
C1659      N1664   1.432       .  S
C1660      H1665   1.083       .  S
N1661      H1681   1.040       .  S
N1661      H1682   1.045       .  S
C1663      C1666   1.406       .  A
C1663      C1670   1.412       .  A
N1664      H1679   1.044       .  S
N1664      H1680   1.045       .  S
C1666      C1667   1.410       .  A
C1666      H1671   1.082       .  S
C1667      C1668   1.407       .  A
C1667      N1672   1.436       .  S
C1668      C1669   1.396       .  A
C1669      C1670   1.394       .  A
C1669      H1673   1.085       .  S
C1670      N1674   1.432       .  S
N1672      H1675   1.045       .  S
N1672      H1676   1.046       .  S
N1674      H1677   1.046       .  S
N1674      H1678   1.044       .  S
C1683      C1684   1.413       .  A
C1683      C1688   1.407       .  A
C1684      C1685   1.408       .  A
C1684      N1689   1.438       .  S
C1685      C1686   1.403       .  A
C1685      H1690   1.082       .  S
C1686      C1691   1.478       .  S
C1686      C1687   1.404       .  A
C1687      C1688   1.403       .  A
C1687      N1692   1.438       .  S
C1688      H1693   1.084       .  S
N1689      H1709   1.045       .  S
N1689      H1710   1.046       .  S
C1691      C1694   1.401       .  A
C1691      C1698   1.415       .  A
N1692      H1707   1.046       .  S
N1692      H1708   1.046       .  S
C1694      C1695   1.399       .  A
C1694      H1699   1.084       .  S
C1695      C1696   1.416       .  A
C1695      N1700   1.438       .  S
C1696      C1697   1.402       .  A
C1697      C1698   1.402       .  A
C1697      H1701   1.084       .  S
C1698      N1702   1.438       .  S
N1700      H1703   1.045       .  S
N1700      H1704   1.044       .  S
N1702      H1705   1.046       .  S
N1702      H1706   1.043       .  S
C1711      C1712   1.418       .  A
C1711      C1716   1.412       .  A
C1712      C1713   1.417       .  A
C1712      N1717   1.437       .  S
C1713      C1714   1.408       .  A
C1713      H1718   1.083       .  S
C1714      C1719   1.492       .  S
C1714      C1715   1.411       .  A
C1715      C1716   1.399       .  A
C1715      N1720   1.439       .  S
C1716      H1721   1.083       .  S
N1717      H1737   1.045       .  S
N1717      H1738   1.045   1_556  S
C1719      C1722   1.404       .  A
C1719      C1726   1.408       .  A
N1720      H1735   1.045       .  S
N1720      H1736   1.043       .  S
C1722      C1723   1.403       .  A
C1722      H1727   1.084       .  S
C1723      C1724   1.416       .  A
C1723      N1728   1.438       .  S
C1724      C1725   1.408       .  A
C1725      C1726   1.412       .  A
C1725      H1729   1.083       .  S
C1726      N1730   1.437       .  S
N1728      H1731   1.045   1_556  S
N1728      H1732   1.043   1_556  S
N1730      H1733   1.046       .  S
N1730      H1734   1.045       .  S
C1739      C1740   1.418       .  A
C1739      C1744   1.404       .  A
C1740      C1741   1.406       .  A
C1740      N1745   1.437       .  S
C1741      C1742   1.402       .  A
C1741      H1746   1.084       .  S
C1742      C1747   1.479       .  S
C1742      C1743   1.408       .  A
C1743      C1744   1.401       .  A
C1743      N1748   1.438       .  S
C1744      H1749   1.083       .  S
N1745      H1765   1.043       .  S
N1745      H1766   1.046       .  S
C1747      C1750   1.404       .  A
C1747      C1754   1.404       .  A
N1748      H1763   1.046       .  S
N1748      H1764   1.045       .  S
C1750      C1751   1.412       .  A
C1750      H1755   1.083       .  S
C1751      C1752   1.416       .  A
C1751      N1756   1.437       .  S
C1752      C1753   1.411       .  A
C1753      C1754   1.401       .  A
C1753      H1757   1.083       .  S
C1754      N1758   1.439       .  S
N1756      H1759   1.045   1_556  S
N1756      H1760   1.044       .  S
N1758      H1761   1.045       .  S
N1758      H1762   1.045       .  S
C1767      C1768   1.411       .  A
C1767      C1772   1.401       .  A
C1768      C1769   1.401       .  A
C1768      N1773   1.438       .  S
C1769      C1770   1.402       .  A
C1769      H1774   1.083       .  S
C1770      C1775   1.486       .  S
C1770      C1771   1.415       .  A
C1771      C1772   1.406       .  A
C1771      N1776   1.438       .  S
C1772      H1777   1.084       .  S
N1773      H1793   1.046       .  S
N1773      H1794   1.046       .  S
C1775      C1778   1.406       .  A
C1775      C1782   1.414       .  A
N1776      H1791   1.046   1_455  S
N1776      H1792   1.044   1_455  S
C1778      C1779   1.405       .  A
C1778      H1783   1.083       .  S
C1779      C1780   1.406       .  A
C1779      N1784   1.437       .  S
C1780      C1781   1.401       .  A
C1781      C1782   1.402       .  A
C1781      H1785   1.084   1_455  S
C1782      N1786   1.438       .  S
N1784      H1787   1.046       .  S
N1784      H1788   1.045       .  S
N1786      H1789   1.046   1_455  S
N1786      H1790   1.045   1_455  S
