geometry optimzed in LAMMPS
_audit_creation_date              2020-12-01 
_audit_creation_method            'lammps2cif' 
_symmetry_space_group_name_H-M    'P1' 
_symmetry_Int_Tables_number       1 
_symmetry_cell_setting            triclinic 
loop_ 
_symmetry_equiv_pos_as_xyz 
  x,y,z 
_cell_length_a                    33.72452217 
_cell_length_b                    34.08087869731782 
_cell_length_c                    23.382770452531133 
_cell_angle_alpha                 89.96813194571409 
_cell_angle_beta                  90.34257979318431 
_cell_angle_gamma                 89.92847228158378 
loop_ 
_atom_site_label 
_atom_site_type_symbol 
_atom_site_fract_x 
_atom_site_fract_y 
_atom_site_fract_z 
_atom_site_charge 
C1          C  0.24920430  0.20606069  0.73281710     0.88100
C2          C  0.28640738  0.21300359  0.76907588    -0.52100
C3          C  0.28804190  0.24889442  0.79457338     0.11000
C4          C  0.25052012  0.27437259  0.78357878     0.22000
C5          C  0.21425185  0.21279716  0.77311357    -0.52800
C6          C  0.21397087  0.24871286  0.79882611     0.11100
C7          C  0.24784247  0.24150473  0.69095410    -0.52400
C8          C  0.24860872  0.27737729  0.71815724     0.11700
H9          H  0.31123027  0.19261396  0.76988226     0.16200
H10         H  0.25113908  0.30333571  0.80537746     0.02000
H11         H  0.18991327  0.19211137  0.77710537     0.16500
H12         H  0.24684405  0.23848125  0.64475388     0.16300
C13         C  0.13402302  0.08393065  0.52194635     0.44100
N14         N  0.16741194  0.03359361  0.49688472     0.03000
C15         C  0.28779408  0.41136554  0.63615018    -0.04900
H16         H  0.31791295  0.07776413  0.65844364     0.08500
C17         C  0.35175592  0.05969557  0.46273847    -0.05300
Co18       Co  0.20160422  0.48873639  0.57501938     0.74200
N19         N  0.27339760  0.03483810  0.63517458    -0.24400
Co20       Co  0.30424023  0.48845671  0.56632171     0.74100
C21         C  0.36940987  0.07884206  0.51217519     0.44200
N22         N  0.26455365  0.03312711  0.39944567     0.02600
N23         N  0.33258384  0.03198595  0.54110050     0.02700
N24         N  0.22091108  0.41227629  0.63961132    -0.45300
H25         H  0.14390066  0.07165336  0.61754993     0.08500
N26         N  0.23432317  0.03508458  0.63836737     0.03000
N27         N  0.33239580  0.44521940  0.51820502     0.02700
C28         C  0.36600863  0.39528208  0.49200854     0.44300
N29         N  0.22550776  0.03344127  0.40243090    -0.23900
C30         C  0.14722602  0.41639264  0.55117978    -0.04800
N31         N  0.14656074  0.06335700  0.47628312    -0.45000
N32         N  0.35464696  0.41613324  0.53804099    -0.45200
C33         C  0.13170676  0.39749189  0.49998022     0.44100
N34         N  0.23496895  0.44476937  0.61572562     0.03000
N35         N  0.22446008  0.44440315  0.38104878    -0.23900
N36         N  0.16906662  0.03356004  0.55335987    -0.24400
N37         N  0.26348775  0.44366470  0.37787548     0.02600
H38         H  0.17953804  0.40153937  0.35890503     0.08500
H39         H  0.35319584  0.40713241  0.39675044     0.08500
N40         N  0.27404546  0.44479845  0.61246722    -0.24500
N41         N  0.32957553  0.03108759  0.48475218    -0.24100
N42         N  0.16654334  0.44671684  0.47494518     0.03000
C43         C  0.25203094  0.09062390  0.67473733     0.44400
C44         C  0.21200941  0.06670156  0.37781657    -0.05300
N45         N  0.32920517  0.44489000  0.46188043    -0.24100
H46         H  0.35605406  0.06527801  0.41767862     0.08500
N47         N  0.22039166  0.06812920  0.66095662    -0.45300
H48         H  0.18140186  0.07607706  0.37586011     0.08500
C49         C  0.24514212  0.38784890  0.34316225     0.44200
C50         C  0.14816811  0.06409762  0.57310235    -0.04800
Co51       Co  0.19527123  0.48901545  0.42644294     0.73800
N52         N  0.27887427  0.06534634  0.37483119    -0.45000
C53         C  0.25252165  0.38991394  0.65402857     0.44500
N54         N  0.14449869  0.41791072  0.45444944    -0.45000
Co55       Co  0.29737163  0.48763513  0.41788366     0.73900
C56         C  0.34968156  0.41440798  0.44142846    -0.05300
C57         C  0.28724465  0.06858661  0.65768259    -0.04900
N58         N  0.16883546  0.44643896  0.53135656    -0.24400
N59         N  0.35676808  0.05998894  0.55942277    -0.45200
H60         H  0.31842383  0.40202225  0.63740118     0.08500
C61         C  0.21023895  0.41055301  0.35934482    -0.05300
Cl62       Cl  0.24963827  0.48839827  0.49645957    -0.48300
C63         C  0.24742746  0.08787791  0.35963167     0.44200
H64         H  0.14312189  0.40872889  0.59563167     0.08400
N65         N  0.27703786  0.41012811  0.35637432    -0.45000
N66         N  0.00073495  0.29882928  0.44154142    -0.35000
N67         N  0.06313617  0.24060047  0.45254816    -0.55500
N68         N  0.00254543  0.18046448  0.46768688    -0.35000
N69         N  0.44002279  0.23656428  0.45417054    -0.55500
C70         C  0.03283477  0.32068214  0.42876801     0.28600
C71         C  0.46657658  0.31857809  0.43564437     0.28600
C72         C  0.03523151  0.15834785  0.45877051     0.28600
C73         C  0.47101726  0.15512061  0.45377093     0.28600
C74         C  0.08558070  0.27319460  0.45688830     0.37200
C75         C  0.08676540  0.21021474  0.46703853     0.37200
C76         C  0.41615601  0.26804866  0.46012367     0.37200
C77         C  0.41778603  0.20488393  0.46661523     0.37200
C78         C  0.02086390  0.35568962  0.40376529    -0.20300
C79         C  0.47672731  0.35464225  0.41243010    -0.20300
C80         C  0.02410430  0.12054911  0.44375590    -0.20300
C81         C  0.48336915  0.11802744  0.43714701    -0.20300
C82         C  0.12394301  0.26343892  0.47321925    -0.21300
C83         C  0.12471458  0.22335819  0.47954253    -0.21300
C84         C  0.37836806  0.25634596  0.47565822    -0.21300
C85         C  0.37938605  0.21617856  0.47970836    -0.21300
C86         C  0.07230479  0.31133094  0.44349354    -0.16700
C87         C  0.42750005  0.30696563  0.44863446    -0.16700
C88         C  0.43114167  0.16583617  0.46327254    -0.16700
C89         C  0.07486488  0.17068658  0.46629220    -0.16700
H90         H  0.03948538  0.37964798  0.38976717     0.16200
H91         H  0.45688917  0.37799472  0.39925692     0.16200
H92         H  0.04333134  0.09600050  0.43411436     0.16200
H93         H  0.46499315  0.09279064  0.42776898     0.16200
H94         H  0.14883385  0.28305417  0.47927913     0.14500
H95         H  0.15024527  0.20590148  0.49170515     0.14500
H96         H  0.35269494  0.27476654  0.48274310     0.14500
H97         H  0.35466747  0.19743967  0.49064745     0.14500
H98         H  0.00080646  0.27286302  0.46447278     0.27800
H99         H  0.00195365  0.20909092  0.48268650     0.27800
C100        C  0.24909306  0.19977649  0.28705301     0.88100
C101        C  0.21215667  0.20367534  0.24916220    -0.52100
C102        C  0.20990494  0.23784059  0.21900987     0.11000
C103        C  0.24662560  0.26481807  0.22760389     0.22000
C104        C  0.28438824  0.20500125  0.24678997    -0.52800
C105        C  0.28405804  0.23926869  0.21651894     0.11100
C106        C  0.24904205  0.23764470  0.32417286    -0.52400
C107        C  0.24777313  0.27178336  0.29246942     0.11700
H108        H  0.18799809  0.18258886  0.25008822     0.16200
H109        H  0.24553276  0.29236355  0.20218510     0.02000
H110        H  0.30923404  0.18467197  0.24581568     0.16500
H111        H  0.24986774  0.23740166  0.37058935     0.16300
N112        N  0.24668259  0.45415921  0.06582668    -0.35000
N113        N  0.19210418  0.01426608  0.99842263    -0.55500
N114        N  0.25252646  0.07299602  0.98824088    -0.35000
N115        N  0.31245760  0.01176301  0.98717871    -0.55500
C116        C  0.21336339  0.43279358  0.05900980     0.28600
C117        C  0.27740208  0.43156672  0.04925492     0.29600
C118        C  0.22023879  0.09580700  0.99488189     0.28600
C119        C  0.28420465  0.09395503  0.00590902     0.28600
C120        C  0.16400503  0.48495824  0.08128355     0.37200
C121        C  0.16852247  0.04489894  0.98464748     0.37200
C122        C  0.33129847  0.48100990  0.06108980     0.37200
C123        C  0.33615991  0.04352231  0.98713534     0.37200
C124        C  0.22302088  0.39572413  0.03884505    -0.20300
C125        C  0.26352885  0.39498024  0.03255694    -0.20300
C126        C  0.23136413  0.13225804  0.01561789    -0.20300
C127        C  0.27185161  0.13095640  0.02325101    -0.20300
C128        C  0.12661337  0.49754294  0.09747654    -0.21300
C129        C  0.12965354  0.03247480  0.97802078    -0.21300
C130        C  0.37046209  0.49098152  0.07209720    -0.21300
C131        C  0.37439191  0.03292770  0.97178785    -0.21300
C132        C  0.17469128  0.44546141  0.07221886    -0.16700
C133        C  0.31768624  0.44245181  0.05106051    -0.16700
C134        C  0.32405030  0.08158182  0.00302021    -0.16700
C135        C  0.18112745  0.08432853  0.98244657    -0.16700
H136        H  0.20301041  0.37170874  0.02961374     0.16200
H137        H  0.28079383  0.37026445  0.01763301     0.16200
H138        H  0.21224987  0.15689674  0.02521936     0.16200
H139        H  0.29014669  0.15475123  0.03893986     0.16200
H140        H  0.10122286  0.47962296  0.10810178     0.14500
H141        H  0.10384240  0.05004576  0.96770520     0.14500
H142        H  0.39572490  0.47153345  0.07602687     0.14500
H143        H  0.40030468  0.05150118  0.96906983     0.14500
H144        H  0.24846397  0.48197993  0.08353705     0.27800
H145        H  0.25271063  0.04540498  0.96976863     0.27800
C146        C  0.09126521  0.14916627  0.00668631     0.44100
N147        N  0.03966313  0.18210104  0.02755680     0.03000
C148        C  0.42491178  0.30839641  0.85658783    -0.04900
H149        H  0.08856656  0.33745908  0.87713493     0.08500
C150        C  0.06843707  0.36401447  0.07350072    -0.05300
Co151      Co  0.50253821  0.22197119  0.91595211     0.74200
N152        N  0.04501653  0.29268779  0.89650263    -0.24400
Co153      Co  0.50202456  0.32283670  0.92944605     0.74100
C154        C  0.08755982  0.38282193  0.02500304     0.44200
N155        N  0.03969397  0.27494051  0.12952609     0.02600
N156        N  0.03971803  0.34776232  0.99405050     0.02700
N157        N  0.42666599  0.24256904  0.84890588    -0.45300
H158        H  0.08531200  0.16407672  0.91071201     0.08500
N159        N  0.04583407  0.25412816  0.89110347     0.03000
N160        N  0.45730383  0.35023592  0.97660579     0.02700
C161        C  0.40662573  0.38330560  0.00232191     0.44300
N162        N  0.03854205  0.23640487  0.12457687    -0.23900
C163        C  0.42862893  0.17012211  0.92752983    -0.04800
N164        N  0.06752635  0.15951645  0.04984240    -0.45000
N165        N  0.42864541  0.37322701  0.95666005    -0.45200
C166        C  0.40600645  0.15400640  0.97412302     0.44100
N167        N  0.45962764  0.25608068  0.87316389     0.03000
N168        N  0.45041580  0.24086255  0.10797882    -0.23900
N169        N  0.04308333  0.18666047  0.97172712    -0.24400
N170        N  0.45015522  0.27931768  0.11413130     0.02600
H171        H  0.40827355  0.19546370  0.12914069     0.08500
H172        H  0.41631994  0.36798847  0.09718567     0.08500
N173        N  0.45908516  0.29456013  0.87910702    -0.24500
N174        N  0.03917365  0.34286252  0.05007649    -0.24100
N175        N  0.45422130  0.18653665  0.00922109     0.03000
C176        C  0.10214006  0.27264432  0.85751512     0.44400
C177        C  0.07186868  0.22143307  0.14786961    -0.05300
N178        N  0.45560215  0.34571807  0.03267133    -0.24100
H179        H  0.07455816  0.36673786  0.11876498     0.08500
N180        N  0.07938488  0.24105786  0.86858813    -0.45300
H181        H  0.08061606  0.19094031  0.14745452     0.08500
C182        C  0.39452339  0.25981153  0.14972175     0.44200
C183        C  0.07516825  0.16665098  0.95432798    -0.04800
Co184      Co  0.49559235  0.21243637  0.06391366     0.73800
N185        N  0.07331183  0.28747252  0.15337811    -0.45000
C186        C  0.40341785  0.27377492  0.83661998     0.44500
N187        N  0.42346585  0.16470408  0.02379351    -0.45000
Co188      Co  0.49678009  0.31289904  0.07796898     0.73900
C189        C  0.42459731  0.36563524  0.05271994    -0.05300
C190        C  0.07945791  0.30707168  0.87601166    -0.04900
N191        N  0.45773666  0.19001844  0.95324244    -0.24400
N192        N  0.06810712  0.37182216  0.97725601    -0.45200
H193        H  0.41474369  0.33844164  0.85841293     0.08500
C194        C  0.41685470  0.22601562  0.12973733    -0.05300
Cl195      Cl  0.49923217  0.26759637  0.99684577    -0.48300
C196        C  0.09495769  0.25522595  0.16660438     0.44200
H197        H  0.42416283  0.16709557  0.88191640     0.08400
N198        N  0.41681276  0.29203271  0.13841717    -0.45000
C199        C  0.35502124  0.11112461  0.01274303    -0.14800
C200        C  0.37230497  0.12775440  0.96779220    -0.30000
H201        H  0.36395952  0.11820394  0.05623702     0.14200
H202        H  0.36257263  0.12025288  0.92474314     0.14800
C203        C  0.12042477  0.41073812  0.02574670    -0.14800
C204        C  0.14283192  0.41599538  0.07245396    -0.30000
H205        H  0.12658975  0.42727854  0.98704840     0.14200
H206        H  0.13819137  0.39886495  0.11097810     0.14800
C207        C  0.37278652  0.41022985  0.00134587    -0.14800
C208        C  0.34752707  0.41110466  0.04533164    -0.30000
H209        H  0.36952921  0.43069191  0.96597841     0.14200
H210        H  0.34919020  0.38922407  0.07906004     0.14800
C211        C  0.12441870  0.12209765  0.01445877    -0.14800
C212        C  0.15101934  0.11520186  0.97373848    -0.30000
H213        H  0.12662344  0.10652018  0.05495933     0.14200
H214        H  0.15070140  0.13160539  0.93391679     0.14800
C215        C  0.32038825  0.25276764  0.18847150    -0.11600
C216        C  0.35362797  0.25907454  0.17014941    -0.13200
C217        C  0.17164657  0.25004225  0.19504751    -0.11600
C218        C  0.13706211  0.25491218  0.18126431    -0.13200
C219        C  0.24661974  0.34613363  0.32929436    -0.11600
C220        C  0.24733326  0.31156210  0.31595609    -0.13200
C221        C  0.25005406  0.16141521  0.31832517    -0.11600
C222        C  0.24957639  0.12819655  0.33813718    -0.13200
C223        C  0.39671631  0.33765542  0.44861878    -0.14800
C224        C  0.39232655  0.36107722  0.49409297    -0.30000
H225        H  0.37936450  0.34204778  0.40988649     0.14200
H226        H  0.40916650  0.35548270  0.53303173     0.14800
C227        C  0.10838757  0.11853030  0.51919932    -0.14800
C228        C  0.10550287  0.13997226  0.47141590    -0.30000
H229        H  0.09081717  0.12605857  0.55643559     0.14200
H230        H  0.12410267  0.13380477  0.43470326     0.14800
C231        C  0.10068004  0.34404518  0.44673338    -0.14800
C232        C  0.10701870  0.36228649  0.49667938    -0.30000
H233        H  0.11388581  0.35471745  0.40742119     0.14200
H234        H  0.09349941  0.35127242  0.53557970     0.14800
C235        C  0.39828793  0.11093473  0.51151246    -0.14800
C236        C  0.40118451  0.13442636  0.46578057    -0.30000
H237        H  0.41722730  0.11553317  0.54865084     0.14200
H238        H  0.38063165  0.13166995  0.43006970     0.14800
C239        C  0.36109069  0.27058595  0.82485693    -0.11600
C240        C  0.32640028  0.26370712  0.81420134    -0.13200
C241        C  0.17732677  0.26314796  0.82473346    -0.11600
C242        C  0.14368013  0.27005757  0.84075732    -0.13200
C243        C  0.24908001  0.31551619  0.68974340    -0.11600
C244        C  0.25035769  0.34916928  0.67241519    -0.13200
C245        C  0.24898530  0.16610126  0.70666471    -0.11600
C246        C  0.24997829  0.13190271  0.69125515    -0.13200
C247        C  0.24865835  0.70071180  0.71580392     0.88100
C248        C  0.28459590  0.70382481  0.75551045    -0.52100
C249        C  0.28560640  0.73703495  0.78763759     0.11000
C250        C  0.24894158  0.76401966  0.77860802     0.22000
C251        C  0.21246850  0.70444545  0.75444554    -0.52800
C252        C  0.21177717  0.73779511  0.78646867     0.11100
C253        C  0.24899194  0.73938738  0.68053455    -0.52400
C254        C  0.24906175  0.77264972  0.71412775     0.11700
H255        H  0.30883757  0.68275471  0.75511819     0.16200
H256        H  0.24908668  0.79086720  0.80555741     0.02000
H257        H  0.18777228  0.68398532  0.75293983     0.16500
H258        H  0.24898166  0.74030124  0.63412392     0.16300
C259        C  0.13525412  0.58273337  0.50161890     0.44100
N260        N  0.16762760  0.53213218  0.47518476     0.03000
C261        C  0.28626031  0.91251392  0.65760537    -0.04900
H262        H  0.31849414  0.57633711  0.63297292     0.08500
C263        C  0.35141586  0.55947425  0.43873756    -0.05300
Co264      Co  0.20069171  0.99095022  0.59788546     0.74200
N265        N  0.27429548  0.53271769  0.61119822    -0.24400
Co266      Co  0.30329027  0.99021490  0.59062865     0.74100
C267        C  0.36774177  0.57949605  0.48842928     0.44200
N268        N  0.26450920  0.53229324  0.37726043     0.02600
N269        N  0.33292394  0.53086800  0.51683998     0.02700
N270        N  0.21947634  0.91301439  0.65905755    -0.45300
H271        H  0.14598331  0.56982584  0.59677372     0.08500
N272        N  0.23526443  0.53257971  0.61517406     0.03000
N273        N  0.33127865  0.94665116  0.54307780     0.02700
C274        C  0.36357316  0.89553151  0.51831169     0.44300
N275        N  0.22549789  0.53266690  0.38081149    -0.23900
C276        C  0.14714662  0.91823109  0.57487283    -0.04800
N277        N  0.14702995  0.56231449  0.45541268    -0.45000
N278        N  0.35274550  0.91726458  0.56365538    -0.45200
C279        C  0.13311701  0.89786986  0.52412231     0.44100
N280        N  0.23364560  0.94664482  0.63881141     0.03000
N281        N  0.22462014  0.94526761  0.40381423    -0.23900
N282        N  0.16974573  0.53164514  0.53158878    -0.24400
N283        N  0.26364418  0.94476880  0.40093738     0.02600
H284        H  0.17992176  0.90296436  0.37848840     0.08500
H285        H  0.35134286  0.90654905  0.42273347     0.08500
N286        N  0.27272217  0.94675147  0.63629357    -0.24500
N287        N  0.33015524  0.53000834  0.46051236    -0.24100
N288        N  0.16673553  0.94772274  0.49802749     0.03000
C289        C  0.25266362  0.58839885  0.65016241     0.44400
C290        C  0.21205271  0.56695694  0.35946663    -0.05300
N291        N  0.32823772  0.94584488  0.48673732    -0.24100
H292        H  0.35506695  0.56570405  0.39374938     0.08500
N293        N  0.22116030  0.56554603  0.63757653    -0.45300
H294        H  0.18160453  0.57683004  0.35943092     0.08500
C295        C  0.24580998  0.88984282  0.36286667     0.44200
C296        C  0.14957926  0.56238121  0.55216366    -0.04800
Co297      Co  0.19528652  0.99003083  0.44891412     0.73800
N298        N  0.27880282  0.56560696  0.35602393    -0.45000
C299        C  0.25097533  0.89014264  0.67239297     0.44500
N300        N  0.14589284  0.91784169  0.47807990    -0.45000
Co301      Co  0.29704841  0.98870413  0.44164857     0.73900
C302        C  0.34796213  0.91455247  0.46716137    -0.05300
C303        C  0.28796642  0.56674149  0.63290419    -0.04900
N304        N  0.16829964  0.94839262  0.55447385    -0.24400
N305        N  0.35546318  0.56008415  0.53541741    -0.45200
H306        H  0.31677207  0.90285979  0.65797877     0.08500
C307        C  0.21065189  0.91186916  0.38024521    -0.05300
Cl308      Cl  0.24909546  0.99009907  0.51982862    -0.48300
C309        C  0.24740690  0.58882429  0.34333776     0.44200
H310        H  0.14287195  0.91107799  0.61946841     0.08400
N311        N  0.27750412  0.91200247  0.37744306    -0.45000
N312        N  0.00359095  0.79996536  0.46593383    -0.35000
N313        N  0.06456477  0.74000610  0.45714916    -0.55500
N314        N  0.00250362  0.68047632  0.45324088    -0.35000
N315        N  0.43900962  0.73709809  0.46016274    -0.55500
C316        C  0.03625414  0.82225093  0.45849429     0.28600
C317        C  0.46537357  0.81868871  0.48596049     0.28600
C318        C  0.03462182  0.65892481  0.43918193     0.28600
C319        C  0.47153348  0.65794700  0.43700743     0.28600
C320        C  0.08784533  0.77074264  0.47103155     0.37200
C321        C  0.08726723  0.70763040  0.46277016     0.37200
C322        C  0.41392056  0.76720718  0.46954839     0.37200
C323        C  0.41637573  0.70462365  0.45526950     0.37200
C324        C  0.02518728  0.85980916  0.44194529    -0.20300
C325        C  0.47785507  0.85739966  0.48288206    -0.20300
C326        C  0.02255561  0.62315173  0.41678958    -0.20300
C327        C  0.48589969  0.62426629  0.41121151    -0.20300
C328        C  0.12577908  0.75799242  0.48465648    -0.21300
C329        C  0.12543313  0.71784713  0.47933191    -0.21300
C330        C  0.37502735  0.75404436  0.46892825    -0.21300
C331        C  0.37660994  0.71422770  0.46028941    -0.21300
C332        C  0.07571582  0.81021559  0.46860274    -0.16700
C333        C  0.42559169  0.80645781  0.47800613    -0.16700
C334        C  0.43105442  0.66667240  0.44426606    -0.16700
C335        C  0.07441614  0.66927000  0.45020671    -0.16700
H336        H  0.04440946  0.88445964  0.43306471     0.16200
H337        H  0.46027955  0.88301639  0.47234532     0.16200
H338        H  0.04115766  0.59926679  0.40236043     0.16200
H339        H  0.46886944  0.60096605  0.39147149     0.16200
H340        H  0.15105426  0.77575768  0.49675845     0.14500
H341        H  0.15043388  0.69847291  0.48646674     0.14500
H342        H  0.34834887  0.77123215  0.47477565     0.14500
H343        H  0.35139779  0.69468241  0.45746918     0.14500
H344        H  0.00291321  0.77156331  0.48170193     0.27800
H345        H  0.00267036  0.70713840  0.47447134     0.27800
C346        C  0.25048604  0.70472876  0.28920955     0.88100
C347        C  0.21467628  0.71064406  0.24966828    -0.52100
C348        C  0.21404726  0.74568600  0.22158882     0.11000
C349        C  0.25110889  0.77155587  0.23418921     0.22000
C350        C  0.28682963  0.71026630  0.25144826    -0.52800
C351        C  0.28813442  0.74522290  0.22338230     0.11100
C352        C  0.25026294  0.74127772  0.32896950    -0.52400
C353        C  0.25049118  0.77644777  0.29967406     0.11700
H354        H  0.19029118  0.68985805  0.24724579     0.16200
H355        H  0.25138181  0.79987837  0.21064474     0.02000
H356        H  0.31102868  0.68917504  0.25004604     0.16500
H357        H  0.24964707  0.73947657  0.37531399     0.16300
N358        N  0.25165372  0.95281849  0.98722761    -0.35000
N359        N  0.18750415  0.51602932  0.07024292    -0.55500
N360        N  0.24964910  0.57560169  0.07400106    -0.35000
N361        N  0.30849444  0.51357115  0.05904298    -0.55500
C362        C  0.22151228  0.93157229  0.00889960     0.28600
C363        C  0.28435719  0.93006884  0.98884570     0.29600
C364        C  0.21771218  0.59853988  0.06357916     0.28600
C365        C  0.28219742  0.59728425  0.06314618     0.28600
C366        C  0.16856579  0.98236798  0.99993346     0.37200
C367        C  0.16530011  0.54829963  0.07961063     0.37200
C368        C  0.33498055  0.98118836  0.97059898     0.37200
C369        C  0.33293880  0.54412098  0.06927169     0.37200
C370        C  0.23508030  0.89439828  0.02339595    -0.20300
C371        C  0.27475697  0.89331172  0.01017357    -0.20300
C372        C  0.23015207  0.63576440  0.04777040    -0.20300
C373        C  0.27093843  0.63502650  0.04777283    -0.20300
C374        C  0.12952942  0.99300683  0.98894813    -0.21300
C375        C  0.12737184  0.53774529  0.09607481    -0.21300
C376        C  0.37349234  0.99348065  0.96043769    -0.21300
C377        C  0.37149586  0.53096882  0.07727496    -0.21300
C378        C  0.18167549  0.94392761  0.01220987    -0.16700
C379        C  0.32248413  0.94177187  0.97135153    -0.16700
C380        C  0.32172952  0.58396495  0.06681558    -0.16700
C381        C  0.17772843  0.58705979  0.06912574    -0.16700
H382        H  0.21806773  0.87036747  0.04092902     0.16200
H383        H  0.29430415  0.86843661  0.01629927     0.16200
H384        H  0.21178611  0.66082701  0.03714565     0.16200
H385        H  0.29007458  0.65933351  0.03679388     0.16200
H386        H  0.10358107  0.97440041  0.98809118     0.14500
H387        H  0.10276703  0.55702454  0.10567889     0.14500
H388        H  0.39865110  0.97566448  0.94822780     0.14500
H389        H  0.39772767  0.54840758  0.08544840     0.14500
H390        H  0.24990584  0.98064653  0.96963358     0.27800
H391        H  0.24942610  0.54700743  0.08918049     0.27800
C392        C  0.09361622  0.64660258  0.00390727     0.44100
N393        N  0.04347158  0.68161186  0.02587329     0.03000
C394        C  0.41892890  0.79141008  0.86671668    -0.04900
H395        H  0.08634473  0.82508404  0.85276763     0.08500
C396        C  0.07676583  0.86252424  0.04312995    -0.05300
Co397      Co  0.49973659  0.70867188  0.92928332     0.74200
N398        N  0.04307729  0.78216981  0.88032252    -0.24400
Co399      Co  0.49757211  0.81002278  0.93268774     0.74100
C400        C  0.09498196  0.87538173  0.98985107     0.44200
N401        N  0.04724198  0.78059154  0.11628402     0.02600
N402        N  0.04298871  0.84267673  0.96982011     0.02700
N403        N  0.42102902  0.72518911  0.86521229    -0.45300
H404        H  0.08161246  0.65363421  0.90740696     0.08500
N405        N  0.04341377  0.74346497  0.88020913     0.03000
N406        N  0.45466156  0.83855027  0.98185683     0.02700
C407        C  0.40630824  0.87347012  0.01066408     0.44300
N408        N  0.04616686  0.74189566  0.11593360    -0.23900
C409        C  0.42714684  0.65569456  0.95635200    -0.04800
N410        N  0.07290931  0.66099000  0.04812459    -0.45000
N411        N  0.42458705  0.86016581  0.96323327    -0.45200
C412        C  0.40784232  0.64237405  0.00819569     0.44100
N413        N  0.45409355  0.74002162  0.88758304     0.03000
N414        N  0.45683799  0.73708810  0.12329237    -0.23900
N415        N  0.04339566  0.68154092  0.96938868    -0.24400
N416        N  0.45664710  0.77575715  0.12521042     0.02600
H417        H  0.41386225  0.69350063  0.14920912     0.08500
H418        H  0.42230902  0.86450893  0.10503155     0.08500
N419        N  0.45333672  0.77870234  0.88961525    -0.24500
N420        N  0.04476461  0.84216787  0.02626867    -0.24100
N421        N  0.45776029  0.67726755  0.03163079     0.03000
C422        C  0.09899855  0.75939468  0.84196620     0.44400
C423        C  0.07950348  0.72819587  0.14078586    -0.05300
N424        N  0.45681207  0.83766885  0.03826106    -0.24100
H425        H  0.08597959  0.86746642  0.08689402     0.08500
N426        N  0.07650783  0.72873297  0.85844195    -0.45300
H427        H  0.08786482  0.69768876  0.14475221     0.08500
C428        C  0.40101527  0.75888881  0.16320935     0.44200
C429        C  0.07401410  0.65957542  0.95142388    -0.04800
Co430      Co  0.50099251  0.70680954  0.07833145     0.73800
N431        N  0.08070449  0.79442267  0.13916551    -0.45000
C432        C  0.39761715  0.75589301  0.85063453     0.44500
N433        N  0.42846059  0.65638171  0.05318550    -0.45000
Co434      Co  0.50055862  0.80773626  0.08160021     0.73900
C435        C  0.42757537  0.85919190  0.06012124    -0.05300
C436        C  0.07692769  0.79489488  0.85620464    -0.04900
N437        N  0.45758264  0.67751534  0.97513521    -0.24400
N438        N  0.07231709  0.86250423  0.94648471    -0.45200
H439        H  0.40898546  0.82155444  0.86492000     0.08500
C440        C  0.42312867  0.72380584  0.14705256    -0.05300
Cl441      Cl  0.49970757  0.75829881  0.00543427    -0.48300
C442        C  0.10240488  0.76293412  0.15597091     0.44200
H443        H  0.41937246  0.65026122  0.91213011     0.08400
N444        N  0.42347868  0.78998326  0.14790125    -0.45000
C445        C  0.35373782  0.61308243  0.06193290    -0.14800
C446        C  0.37300759  0.61717064  0.01241073    -0.30000
H447        H  0.36211657  0.62993459  0.09952950     0.14200
H448        H  0.36335523  0.60107081  0.97471895     0.14800
C449        C  0.12998468  0.89963468  0.98103409    -0.14800
C450        C  0.15129286  0.91414575  0.02431169    -0.30000
H451        H  0.13704269  0.90804582  0.93738869     0.14200
H452        H  0.14520587  0.90629605  0.06838525     0.14800
C453        C  0.37286879  0.90035078  0.01261922    -0.14800
C454        C  0.35327353  0.91152501  0.96574693    -0.30000
H455        H  0.36433753  0.91196971  0.05409201     0.14200
H456        H  0.36132127  0.90082746  0.92363037     0.14800
C457        C  0.12853052  0.62125188  0.01010816    -0.14800
C458        C  0.14647680  0.61687839  0.06111222    -0.30000
H459        H  0.13902839  0.60512759  0.97308070     0.14200
H460        H  0.13660302  0.63320282  0.09830566     0.14800
C461        C  0.32532768  0.75721084  0.19661294    -0.11600
C462        C  0.35945475  0.76054597  0.18028618    -0.13200
C463        C  0.17733267  0.75860351  0.19351037    -0.11600
C464        C  0.14365203  0.76342627  0.17541750    -0.13200
C465        C  0.24778933  0.84907255  0.34375631    -0.11600
C466        C  0.24924220  0.81533880  0.32636829    -0.13200
C467        C  0.25024746  0.66520146  0.31663429    -0.11600
C468        C  0.24962729  0.63066571  0.33036117    -0.13200
C469        C  0.39443101  0.83705472  0.47705403    -0.14800
C470        C  0.38953157  0.86114724  0.52173765    -0.30000
H471        H  0.37610441  0.83999755  0.43893156     0.14200
H472        H  0.40635313  0.85638192  0.56092852     0.14800
C473        C  0.11203142  0.61896861  0.50018564    -0.14800
C474        C  0.10361452  0.63713571  0.45089034    -0.30000
H475        H  0.10045463  0.63034601  0.54017634     0.14200
H476        H  0.11432303  0.62576829  0.41040911     0.14800
C477        C  0.10597782  0.84114598  0.47414065    -0.14800
C478        C  0.10817522  0.86282687  0.52174606    -0.30000
H479        H  0.12459514  0.84753349  0.43753060     0.14200
H480        H  0.09050085  0.85525002  0.55884740     0.14800
C481        C  0.39337566  0.61426009  0.48935736    -0.14800
C482        C  0.40283796  0.63370127  0.44144090    -0.30000
H483        H  0.40520964  0.62396519  0.53030484     0.14200
H484        H  0.39159679  0.62467966  0.39991891     0.14800
C485        C  0.35631446  0.75276356  0.83309510    -0.11600
C486        C  0.32252227  0.74805035  0.81603512    -0.13200
C487        C  0.17459687  0.75030946  0.81213706    -0.11600
C488        C  0.14060271  0.75623213  0.82685029    -0.13200
C489        C  0.24884163  0.81300270  0.69304295    -0.11600
C490        C  0.24912285  0.84800842  0.68256665    -0.13200
C491        C  0.24888845  0.66308526  0.68382369    -0.11600
C492        C  0.25024795  0.62944487  0.66660970    -0.13200
C493        C  0.75170463  0.20234292  0.72240983     0.88100
C494        C  0.78802863  0.20848622  0.76098012    -0.52100
C495        C  0.78955944  0.24433978  0.78674364     0.11000
C496        C  0.75309616  0.27064677  0.77316955     0.22000
C497        C  0.71573790  0.20996926  0.76050684    -0.52800
C498        C  0.71565610  0.24584256  0.78631069     0.11100
C499        C  0.75239680  0.23767991  0.68047733    -0.52400
C500        C  0.75311608  0.27353669  0.70762883     0.11700
H501        H  0.81213861  0.18736676  0.76397777     0.16200
H502        H  0.75369729  0.29965600  0.79483730     0.02000
H503        H  0.69091360  0.18976519  0.76339231     0.16500
H504        H  0.75235922  0.23461315  0.63426320     0.16300
C505        C  0.63467869  0.08253960  0.51140515     0.44100
N506        N  0.66819357  0.03255494  0.48535743     0.03000
C507        C  0.79092652  0.40828167  0.62617057    -0.04900
H508        H  0.81811246  0.07394279  0.64894957     0.08500
C509        C  0.85251440  0.06145872  0.45558036    -0.05300
Co510      Co  0.70349563  0.48669732  0.57202733     0.74200
N511        N  0.77356336  0.03133283  0.62473196    -0.24400
Co512      Co  0.80595762  0.48731349  0.56094863     0.74100
C513        C  0.86954955  0.07944411  0.50642407     0.44200
N514        N  0.76574509  0.03529635  0.39026198     0.02600
N515        N  0.83329306  0.03120689  0.53191159     0.02700
N516        N  0.72407480  0.40835019  0.63102330    -0.45300
H517        H  0.64384427  0.06867781  0.60680331     0.08500
N518        N  0.73445555  0.03162272  0.62742553     0.03000
N519        N  0.83347267  0.44548071  0.50950781     0.02700
C520        C  0.86578113  0.39557036  0.47981587     0.44300
N521        N  0.72669133  0.03492773  0.39257847    -0.23900
C522        C  0.64894204  0.41500721  0.54576767    -0.04800
N523        N  0.64758384  0.06265437  0.46543705    -0.45000
N524        N  0.85491719  0.41521628  0.52717377    -0.45200
C525        C  0.63249825  0.39725963  0.49430586     0.44100
N526        N  0.73755306  0.44169319  0.60895648     0.03000
N527        N  0.72430418  0.44815303  0.37555153    -0.23900
N528        N  0.66938181  0.03142418  0.54179010    -0.24400
N529        N  0.76329770  0.44783131  0.37134017     0.02600
H530        H  0.67958566  0.40494959  0.35424166     0.08500
H531        H  0.85260126  0.41039869  0.38551087     0.08500
N532        N  0.77657161  0.44222486  0.60493937    -0.24500
N533        N  0.83057935  0.03192602  0.47554876    -0.24100
N534        N  0.66705861  0.44717884  0.47050771     0.03000
C535        C  0.75233237  0.08684685  0.66480140     0.44400
C536        C  0.71274773  0.06861560  0.37017232    -0.05300
N537        N  0.83002409  0.44692773  0.45326890    -0.24100
H538        H  0.85696029  0.06846965  0.41097204     0.08500
N539        N  0.72058052  0.06463979  0.65026532    -0.45300
H540        H  0.68202513  0.07759459  0.36842081     0.08500
C541        C  0.74499590  0.39217978  0.33634328     0.44200
C542        C  0.64837800  0.06176191  0.56219296    -0.04800
Co543      Co  0.69529574  0.49120930  0.42379953     0.73800
N544        N  0.77968330  0.06861193  0.36858755    -0.45000
C545        C  0.75609553  0.38593934  0.64324525     0.44500
N546        N  0.64455560  0.41880924  0.44931870    -0.45000
Co547      Co  0.79747789  0.49081932  0.41282611     0.73900
C548        C  0.84984592  0.41667481  0.43062302    -0.05300
C549        C  0.78744553  0.06479197  0.64794190    -0.04900
N550        N  0.67027396  0.44548214  0.52678128    -0.24400
N551        N  0.85695497  0.05899437  0.55223307    -0.45200
H552        H  0.82166718  0.39928800  0.62642259     0.08500
C553        C  0.71012947  0.41441694  0.35360553    -0.05300
Cl554      Cl  0.75057028  0.48901604  0.49239096    -0.48300
C555        C  0.74784483  0.09091168  0.35464815     0.44200
H556        H  0.64547735  0.40638089  0.58996244     0.08400
N557        N  0.77684333  0.41456693  0.34911106    -0.45000
N558        N  0.49980334  0.29786027  0.44738126    -0.35000
N559        N  0.56269730  0.23959798  0.44566746    -0.55500
N560        N  0.50294592  0.17847088  0.46184517    -0.35000
N561        N  0.94040902  0.23853407  0.44857382    -0.55500
C562        C  0.53095428  0.32023872  0.43172822     0.28600
C563        C  0.96844236  0.31941750  0.42487794     0.28600
C564        C  0.53542010  0.15675995  0.45014073     0.28600
C565        C  0.97076655  0.15722417  0.45781045     0.28600
C566        C  0.58521104  0.27222951  0.44983192     0.37200
C567        C  0.58693709  0.20894563  0.45669431     0.37200
C568        C  0.91656304  0.27033737  0.44915439     0.37200
C569        C  0.91746641  0.20758945  0.46215092     0.37200
C570        C  0.51740666  0.35570732  0.41004633    -0.20300
C571        C  0.98016343  0.35486697  0.40122212    -0.20300
C572        C  0.52405317  0.11904979  0.43491056    -0.20300
C573        C  0.98341190  0.11984561  0.44311480    -0.20300
C574        C  0.62416145  0.26224059  0.46233052    -0.21300
C575        C  0.62526360  0.22202841  0.46666514    -0.21300
C576        C  0.87808005  0.25951157  0.46234368    -0.21300
C577        C  0.87864642  0.21961587  0.47057098    -0.21300
C578        C  0.57125112  0.31074710  0.44044509    -0.16700
C579        C  0.92873106  0.30862024  0.43489977    -0.16700
C580        C  0.93062629  0.16840293  0.46331150    -0.16700
C581        C  0.57513417  0.16929140  0.45596128    -0.16700
H582        H  0.53503446  0.38001571  0.39472102     0.16200
H583        H  0.96131724  0.37810741  0.38494340     0.16200
H584        H  0.54312512  0.09474135  0.42351888     0.16200
H585        H  0.96521763  0.09467122  0.43271777     0.16200
H586        H  0.64914797  0.28183656  0.46760945     0.14500
H587        H  0.65125752  0.20445476  0.47605980     0.14500
H588        H  0.85224005  0.27827639  0.46499723     0.14500
H589        H  0.85334296  0.20149985  0.48094129     0.14500
H590        H  0.50122550  0.27123360  0.46867294     0.27800
H591        H  0.50280931  0.20682781  0.47783965     0.27800
C592        C  0.74662792  0.20354646  0.28902694     0.88100
C593        C  0.70909381  0.20748016  0.25236737    -0.52100
C594        C  0.70710115  0.24116167  0.22103400     0.11000
C595        C  0.74436332  0.26758763  0.22771487     0.22000
C596        C  0.78119897  0.20744047  0.24756011    -0.52800
C597        C  0.78100842  0.24113687  0.21634107     0.11100
C598        C  0.74790295  0.24177591  0.32511587    -0.52400
C599        C  0.74664799  0.27538196  0.29230919     0.11700
H600        H  0.68480154  0.18658404  0.25417261     0.16200
H601        H  0.74342010  0.29477585  0.20148388     0.02000
H602        H  0.80580842  0.18679769  0.24675503     0.16500
H603        H  0.74955628  0.24216989  0.37149917     0.16300
N604        N  0.75096771  0.45535469  0.03313704    -0.35000
N605        N  0.68851705  0.01108031  0.00507171    -0.55500
N606        N  0.74781308  0.07272002  0.00751716    -0.35000
N607        N  0.80895143  0.01430873  0.02931884    -0.55500
C608        C  0.71816493  0.43275835  0.03166245     0.28600
C609        C  0.77945208  0.43662934  0.00324198     0.29600
C610        C  0.71756609  0.09211771  0.98198070     0.28600
C611        C  0.78075531  0.09463371  0.00110365     0.28600
C612        C  0.67103329  0.47965378  0.07701127     0.37200
C613        C  0.66476131  0.04285145  0.00037193     0.37200
C614        C  0.83255762  0.48653240  0.01541639     0.37200
C615        C  0.83034855  0.04699069  0.03927131     0.37200
C616        C  0.72611917  0.39864425  0.00134395    -0.20300
C617        C  0.76480528  0.40121094  0.98313619    -0.20300
C618        C  0.73135597  0.12722533  0.95964813    -0.20300
C619        C  0.77129642  0.12890762  0.97198330    -0.20300
C620        C  0.63484551  0.48944803  0.10123693    -0.21300
C621        C  0.62591471  0.03276567  0.01286044    -0.21300
C622        C  0.87197855  0.49608112  0.02516371    -0.21300
C623        C  0.86733229  0.03716160  0.06139276    -0.21300
C624        C  0.68182833  0.44172107  0.05864885    -0.16700
C625        C  0.81907951  0.44932649  0.99764470    -0.16700
C626        C  0.81852770  0.08517728  0.02347046    -0.16700
C627        C  0.67748111  0.08038264  0.98258181    -0.16700
H628        H  0.70630133  0.37428259  0.99338172     0.16200
H629        H  0.78056649  0.37921247  0.95879080     0.16200
H630        H  0.71430601  0.14963513  0.93771920     0.16200
H631        H  0.79098167  0.15276609  0.96101073     0.16200
H632        H  0.61118967  0.46979137  0.11352834     0.14500
H633        H  0.59988813  0.05132544  0.01201772     0.14500
H634        H  0.89771820  0.47735375  0.02071466     0.14500
H635        H  0.89139560  0.05677660  0.07247135     0.14500
H636        H  0.75424596  0.48107056  0.05617179     0.27800
H637        H  0.74582183  0.04716144  0.03129478     0.27800
C638        C  0.59161171  0.15158764  0.99935550     0.44100
N639        N  0.54010278  0.18519951  0.01857044     0.03000
C640        C  0.92159771  0.30439442  0.86756617    -0.04900
H641        H  0.59270454  0.33742919  0.86469055     0.08500
C642        C  0.57229134  0.36464242  0.06211955    -0.05300
Co643      Co  0.00109445  0.21943114  0.92610434     0.74200
N644        N  0.54828760  0.29380053  0.88554165    -0.24400
Co645      Co  0.99831274  0.32043153  0.94135574     0.74100
C646        C  0.59347288  0.38082201  0.01329436     0.44200
N647        N  0.53978461  0.27846453  0.12012262     0.02600
N648        N  0.54334679  0.34908029  0.98265286     0.02700
N649        N  0.92553850  0.23868984  0.85796755    -0.45300
H650        H  0.58612658  0.16490790  0.90279954     0.08500
N651        N  0.54814400  0.25523083  0.88068586     0.03000
N652        N  0.95315882  0.34621700  0.99038102     0.02700
C653        C  0.90147471  0.37612107  0.01990878     0.44300
N654        N  0.53860707  0.23992924  0.11521853    -0.23900
C655        C  0.92767806  0.16589654  0.93822094    -0.04800
N656        N  0.56793485  0.16312930  0.04191873    -0.45000
N657        N  0.92219445  0.36704596  0.97232558    -0.45200
C658        C  0.90526473  0.14989672  0.98534921     0.44100
N659        N  0.95747445  0.25287447  0.88416755     0.03000
N660        N  0.94992117  0.23688794  0.11835268    -0.23900
N661        N  0.54368769  0.18872758  0.96260237    -0.24400
N662        N  0.95022646  0.27524344  0.12552649     0.02600
H663        H  0.90575871  0.19242970  0.13528767     0.08500
H664        H  0.91467586  0.36169634  0.11352743     0.08500
N665        N  0.95576450  0.29126513  0.89104097    -0.24500
N666        N  0.54170041  0.34520864  0.03882737    -0.24100
N667        N  0.95376622  0.18267808  0.01945048     0.03000
C668        C  0.60466580  0.27214232  0.84624626     0.44400
C669        C  0.57133455  0.22481686  0.14002505    -0.05300
N670        N  0.95345089  0.34181522  0.04654362    -0.24100
H671        H  0.57866340  0.36711436  0.10733513     0.08500
N672        N  0.58122352  0.24118575  0.85798953    -0.45300
H673        H  0.57980715  0.19424402  0.14042294     0.08500
C674        C  0.89330606  0.25683315  0.15714615     0.44200
C675        C  0.57562506  0.16802090  0.94615564    -0.04800
Co676      Co  0.99519944  0.20876310  0.07382906     0.73800
N677        N  0.57288986  0.29086897  0.14560984    -0.45000
C678        C  0.90166468  0.26937705  0.84559330     0.44500
N679        N  0.92311706  0.16091295  0.03454261    -0.45000
Co680      Co  0.99583698  0.30926187  0.08941291     0.73900
C681        C  0.92219882  0.36014533  0.06871061    -0.05300
C682        C  0.58295023  0.30722963  0.86447082    -0.04900
N683        N  0.95690330  0.18614162  0.96341140    -0.24400
N684        N  0.57373513  0.37043195  0.96564671    -0.45200
H685        H  0.91076817  0.33423473  0.86910331     0.08500
C686        C  0.91535615  0.22262888  0.13776129    -0.05300
Cl687      Cl  0.99764083  0.26451736  0.00763143    -0.48300
C688        C  0.59408253  0.25851729  0.15985134     0.44200
H689        H  0.92261357  0.16310493  0.89270337     0.08400
N690        N  0.91657988  0.28845163  0.14797648    -0.45000
C691        C  0.84882593  0.11606505  0.02680369    -0.14800
C692        C  0.87045097  0.12466999  0.98088540    -0.30000
H693        H  0.85639964  0.12799393  0.06854195     0.14200
H694        H  0.86301084  0.11199744  0.93954638     0.14800
C695        C  0.62912891  0.40503337  0.01277430    -0.14800
C696        C  0.65058337  0.41164690  0.05996370    -0.30000
H697        H  0.63748405  0.41878609  0.97264511     0.14200
H698        H  0.64221099  0.39914353  0.10084951     0.14800
C699        C  0.86393000  0.39738510  0.02370758    -0.14800
C700        C  0.84965284  0.42019469  0.98203877    -0.30000
H701        H  0.84963503  0.39782122  0.06529981     0.14200
H702        H  0.86508133  0.42288352  0.94158377     0.14800
C703        C  0.62569864  0.12599716  0.00957158    -0.14800
C704        C  0.64696094  0.10990392  0.96776009    -0.30000
H705        H  0.63215916  0.11806501  0.05373106     0.14200
H706        H  0.64161697  0.11734083  0.92322616     0.14800
C707        C  0.81766578  0.25353465  0.18897125    -0.11600
C708        C  0.85168582  0.25778283  0.17310319    -0.13200
C709        C  0.66947443  0.25294861  0.19471277    -0.11600
C710        C  0.63550771  0.25794552  0.17811004    -0.13200
C711        C  0.74665352  0.35023899  0.32534640    -0.11600
C712        C  0.74709789  0.31538906  0.31427516    -0.13200
C713        C  0.74819138  0.16563387  0.32042189    -0.11600
C714        C  0.74901282  0.13197351  0.33778423    -0.13200
C715        C  0.89880616  0.34016174  0.43274218    -0.14800
C716        C  0.89026343  0.36001789  0.48049606    -0.30000
H717        H  0.88720714  0.34923528  0.39140220     0.14200
H718        H  0.90280511  0.35055906  0.52116567     0.14800
C719        C  0.60887858  0.11707444  0.50875742    -0.14800
C720        C  0.60586274  0.13859685  0.46093234    -0.30000
H721        H  0.59114778  0.12436275  0.54592751     0.14200
H722        H  0.62463413  0.13271159  0.42430176     0.14800
C723        C  0.59983285  0.34361621  0.44188636    -0.14800
C724        C  0.60687885  0.36250589  0.49117734    -0.30000
H725        H  0.61333380  0.35323329  0.40222021     0.14200
H726        H  0.59347252  0.35199995  0.53045676     0.14800
C727        C  0.89770146  0.11215169  0.50837048    -0.14800
C728        C  0.90032829  0.13721502  0.46440802    -0.30000
H729        H  0.91661264  0.11567191  0.54579351     0.14200
H730        H  0.87969674  0.13545007  0.42864535     0.14800
C731        C  0.86039545  0.26525061  0.82798823    -0.11600
C732        C  0.82674839  0.25809245  0.81199097    -0.13200
C733        C  0.67922900  0.26080169  0.81206074    -0.11600
C734        C  0.64588813  0.26847707  0.82853952    -0.13200
C735        C  0.75393061  0.31155402  0.67898157    -0.11600
C736        C  0.75473303  0.34513321  0.66136826    -0.13200
C737        C  0.75091862  0.16240994  0.69627334    -0.11600
C738        C  0.75084182  0.12818300  0.68100052    -0.13200
C739        C  0.74791474  0.69900045  0.71508513     0.88100
C740        C  0.78407616  0.70368710  0.75416863    -0.52100
C741        C  0.78486396  0.73764440  0.78472041     0.11000
C742        C  0.74750299  0.76374693  0.77505363     0.22000
C743        C  0.71180014  0.70308366  0.75406864    -0.52800
C744        C  0.71060555  0.73714460  0.78464595     0.11100
C745        C  0.74745389  0.73698741  0.67815073    -0.52400
C746        C  0.74729169  0.77100699  0.71016315     0.11700
H747        H  0.80879540  0.68316852  0.75402112     0.16200
H748        H  0.74741227  0.79118401  0.80069996     0.02000
H749        H  0.68757315  0.68207581  0.75403405     0.16500
H750        H  0.74759372  0.73692616  0.63172296     0.16300
C751        C  0.63685190  0.58295749  0.50664898     0.44100
N752        N  0.66830912  0.53297661  0.47582318     0.03000
C753        C  0.78690239  0.90923732  0.64405906    -0.04900
H754        H  0.82009092  0.57456960  0.63087280     0.08500
C755        C  0.85179328  0.56246012  0.43765071    -0.05300
Co756      Co  0.70112431  0.98788710  0.58485995     0.74200
N757        N  0.77630881  0.53047396  0.60909855    -0.24400
Co758      Co  0.80393211  0.98796657  0.57876043     0.74100
C759        C  0.86933646  0.58012199  0.48850034     0.44200
N760        N  0.76387449  0.53593232  0.37522436     0.02600
N761        N  0.83422245  0.53097722  0.51375366     0.02700
N762        N  0.72005292  0.90995804  0.64614483    -0.45300
H763        H  0.64839326  0.56677620  0.60044761     0.08500
N764        N  0.73734441  0.52978957  0.61410454     0.03000
N765        N  0.83263509  0.94600601  0.52942085     0.02700
C766        C  0.86769572  0.89753167  0.50186414     0.44300
N767        N  0.72488551  0.53607222  0.37952338    -0.23900
C768        C  0.64925747  0.91352444  0.55571139    -0.04800
N769        N  0.64791424  0.56405460  0.45866751    -0.45000
N770        N  0.85522102  0.91698571  0.54850924    -0.45200
C771        C  0.63552004  0.89514365  0.50262950     0.44100
N772        N  0.73424973  0.94325866  0.62484633     0.03000
N773        N  0.72663057  0.94734427  0.38924865    -0.23900
N774        N  0.67103658  0.53063806  0.53208978    -0.24400
N775        N  0.76568348  0.94699413  0.38702193     0.02600
H776        H  0.68219142  0.90541166  0.36195549     0.08500
H777        H  0.85598427  0.91136222  0.40681139     0.08500
N778        N  0.77334450  0.94337303  0.62231336    -0.24500
N779        N  0.83056490  0.53228258  0.45751606    -0.24100
N780        N  0.66798758  0.94702641  0.48209979     0.03000
C781        C  0.75436546  0.58552860  0.65059588     0.44400
C782        C  0.71105953  0.57020263  0.35807725    -0.05300
N783        N  0.83025185  0.94696915  0.47303143    -0.24100
H784        H  0.85524716  0.57031014  0.39315228     0.08500
N785        N  0.72314145  0.56227171  0.63795550    -0.45300
H786        H  0.68046914  0.57970506  0.35800032     0.08500
C787        C  0.74808034  0.89258810  0.34730874     0.44200
C788        C  0.65138226  0.56076130  0.55528696    -0.04800
Co789      Co  0.69664599  0.99051140  0.43606544     0.73800
N790        N  0.77785442  0.56902114  0.35302490    -0.45000
C791        C  0.75152443  0.88713307  0.65977146     0.44500
N792        N  0.64787881  0.91771046  0.45922708    -0.45000
Co793      Co  0.79861640  0.99031942  0.43008731     0.73900
C794        C  0.85163430  0.91741965  0.45171600    -0.05300
C795        C  0.78974632  0.56445350  0.63158838    -0.04900
N796        N  0.66946875  0.94543179  0.53851967    -0.24400
N797        N  0.85772285  0.55887600  0.53403598    -0.45200
H798        H  0.81750297  0.89979739  0.64496334     0.08500
C799        C  0.71286557  0.91439696  0.36436956    -0.05300
Cl800      Cl  0.75010823  0.98915846  0.50749816    -0.48300
C801        C  0.74627550  0.59200235  0.34073982     0.44200
H802        H  0.64527527  0.90416042  0.59948148     0.08400
N803        N  0.77973071  0.91443751  0.36315333    -0.45000
N804        N  0.49647877  0.79548168  0.50022859    -0.35000
N805        N  0.56029171  0.73865632  0.48982407    -0.55500
N806        N  0.50201217  0.67937457  0.45775925    -0.35000
N807        N  0.94186189  0.74061044  0.45270327    -0.55500
C808        C  0.52859118  0.81900606  0.50568895     0.28600
C809        C  0.97188911  0.82274202  0.45347980     0.28600
C810        C  0.53576434  0.65996353  0.44526490     0.28600
C811        C  0.97016923  0.65896939  0.43965623     0.28600
C812        C  0.58119744  0.76793834  0.51446227     0.37200
C813        C  0.58443178  0.70707426  0.48818562     0.37200
C814        C  0.91863515  0.77231675  0.46067627     0.37200
C815        C  0.91801515  0.70902314  0.45717710     0.37200
C816        C  0.51747482  0.85767369  0.49603398    -0.20300
C817        C  0.98453702  0.86011036  0.43872051    -0.20300
C818        C  0.52650070  0.62563191  0.41605366    -0.20300
C819        C  0.98184267  0.62317149  0.41716820    -0.20300
C820        C  0.61918200  0.75515876  0.52772654    -0.21300
C821        C  0.62127639  0.71656093  0.51093935    -0.21300
C822        C  0.87966617  0.76092988  0.46928577    -0.21300
C823        C  0.87930005  0.72068438  0.46725328    -0.21300
C824        C  0.56752225  0.80686104  0.52033272    -0.16700
C825        C  0.93176666  0.81141282  0.45749650    -0.16700
C826        C  0.93042871  0.66996972  0.44931022    -0.16700
C827        C  0.57424698  0.67041011  0.46398479    -0.16700
H828        H  0.53587007  0.88361880  0.49777094     0.16200
H829        H  0.96635635  0.88507239  0.42695458     0.16200
H830        H  0.54676766  0.60329565  0.40105916     0.16200
H831        H  0.96297625  0.59943727  0.40275933     0.16200
H832        H  0.64309216  0.77207685  0.54645842     0.14500
H833        H  0.64712398  0.69784230  0.51446021     0.14500
H834        H  0.85416819  0.77965267  0.47602890     0.14500
H835        H  0.85346046  0.70218062  0.47195385     0.14500
H836        H  0.49546643  0.76566494  0.50861559     0.27800
H837        H  0.49956717  0.70419851  0.48284975     0.27800
C838        C  0.75180517  0.70641148  0.28089660     0.88100
C839        C  0.71704995  0.71144762  0.23951435    -0.52100
C840        C  0.71651985  0.74626796  0.21113416     0.11000
C841        C  0.75279250  0.77278226  0.22489429     0.22000
C842        C  0.78905422  0.71216632  0.24485844    -0.52800
C843        C  0.79036647  0.74706369  0.21636602     0.11100
C844        C  0.75018282  0.74326482  0.31996995    -0.52400
C845        C  0.75087471  0.77813688  0.29002931     0.11700
H846        H  0.69273535  0.69056970  0.23688128     0.16200
H847        H  0.75319650  0.80090632  0.20083226     0.02000
H848        H  0.81364533  0.69151266  0.24510681     0.16500
H849        H  0.74881289  0.74186320  0.36629905     0.16300
N850        N  0.74919833  0.95352457  0.03542587    -0.35000
N851        N  0.69170625  0.51242564  0.06522843    -0.55500
N852        N  0.75062945  0.57425502  0.06599395    -0.35000
N853        N  0.80907903  0.51787309  0.02534553    -0.55500
C854        C  0.71773874  0.92996431  0.02650969     0.28600
C855        C  0.78205458  0.93105206  0.03118556     0.29600
C856        C  0.71723275  0.59596635  0.06090696     0.28600
C857        C  0.78138123  0.59790359  0.05356131     0.28600
C858        C  0.66514653  0.98113628  0.02177400     0.37200
C859        C  0.66903527  0.54293568  0.08164211     0.37200
C860        C  0.83190933  0.98381237  0.04560915     0.37200
C861        C  0.83338267  0.54704231  0.04252868     0.37200
C862        C  0.73051685  0.89178097  0.01749966    -0.20300
C863        C  0.77127398  0.89250484  0.02014459    -0.20300
C864        C  0.72709057  0.63424759  0.04660033    -0.20300
C865        C  0.76776042  0.63554203  0.04246462    -0.20300
C866        C  0.62627209  0.99380346  0.02714931    -0.21300
C867        C  0.63340827  0.52966382  0.10349479    -0.21300
C868        C  0.86840411  0.99702505  0.06499934    -0.21300
C869        C  0.87244699  0.53429162  0.04303530    -0.21300
C870        C  0.67786366  0.94192688  0.02849199    -0.16700
C871        C  0.82123913  0.94410447  0.03999352    -0.16700
C872        C  0.82131168  0.58611613  0.05201859    -0.16700
C873        C  0.67836236  0.58241980  0.07087636    -0.16700
H874        H  0.71238179  0.86612640  0.00970362     0.16200
H875        H  0.79068604  0.86742863  0.01524410     0.16200
H876        H  0.70714208  0.65877425  0.04015414     0.16200
H877        H  0.78521387  0.66103746  0.03136877     0.16200
H878        H  0.60067241  0.97669194  0.03937962     0.14500
H879        H  0.60873027  0.54713046  0.11843809     0.14500
H880        H  0.89320404  0.97955790  0.07999036     0.14500
H881        H  0.89865174  0.55097515  0.05423114     0.14500
H882        H  0.74786614  0.98281676  0.04683950     0.27800
H883        H  0.75292661  0.54522595  0.07897582     0.27800
C884        C  0.59481312  0.64430756  0.00841013     0.44100
N885        N  0.54384273  0.67793322  0.03099681     0.03000
C886        C  0.91965660  0.79494041  0.85905840    -0.04900
H887        H  0.58510024  0.82367778  0.86046762     0.08500
C888        C  0.57288293  0.86073990  0.05224342    -0.05300
Co889      Co  0.99975971  0.71205979  0.92363027     0.74200
N890        N  0.54237556  0.77999073  0.88738295    -0.24400
Co891      Co  0.99909683  0.81340085  0.92477662     0.74100
C892        C  0.59002525  0.87579027  0.99951191     0.44200
N893        N  0.54584692  0.77650226  0.12260882     0.02600
N894        N  0.54059838  0.83990631  0.97821808     0.02700
N895        N  0.92129180  0.72876928  0.85905261    -0.45300
H896        H  0.58328628  0.65283385  0.91204544     0.08500
N897        N  0.54309106  0.74127494  0.88616077     0.03000
N898        N  0.95695517  0.84349459  0.97276353     0.02700
C899        C  0.90834404  0.87938443  0.99884643     0.44300
N900        N  0.54579111  0.73782138  0.12164820    -0.23900
C901        C  0.92682157  0.66112581  0.95030931    -0.04800
N902        N  0.57357682  0.65753829  0.05284930    -0.45000
N903        N  0.92748320  0.86534376  0.95273490    -0.45200
C904        C  0.90666354  0.64860106  0.00152045     0.44100
N905        N  0.95449240  0.74358312  0.88109182     0.03000
N906        N  0.95792708  0.74273701  0.11720862    -0.23900
N907        N  0.54397998  0.67866239  0.97451107    -0.24400
N908        N  0.95779701  0.78143369  0.11820375     0.02600
H909        H  0.91580939  0.69924284  0.14562185     0.08500
H910        H  0.92316632  0.87067419  0.09428240     0.08500
N911        N  0.95407050  0.78228820  0.88229637    -0.24500
N912        N  0.54234935  0.83868380  0.03462957    -0.24100
N913        N  0.95703157  0.68240418  0.02615465     0.03000
C914        C  0.59842593  0.75814908  0.84720067     0.44400
C915        C  0.58031640  0.72502478  0.14403109    -0.05300
N916        N  0.95849522  0.84305172  0.02923156    -0.24100
H917        H  0.58120539  0.86627328  0.09622984     0.08500
N918        N  0.57612459  0.72716129  0.86318209    -0.45300
H919        H  0.59004020  0.69484445  0.14629987     0.08500
C920        C  0.90297198  0.76466462  0.15839539     0.44200
C921        C  0.57530102  0.65785737  0.95616025    -0.04800
Co922      Co  0.00106085  0.71149509  0.07261177     0.73800
N923        N  0.57952505  0.79123566  0.14312419    -0.45000
C924        C  0.89794462  0.75935245  0.84371624     0.44500
N925        N  0.92698895  0.66218795  0.04720570    -0.45000
Co926      Co  0.00217586  0.81260038  0.07396686     0.73900
C927        C  0.92891566  0.86503155  0.04960084    -0.05300
C928        C  0.57606259  0.79332500  0.86316487    -0.04900
N929        N  0.95734678  0.68231380  0.96968430    -0.24400
N930        N  0.56833108  0.86222901  0.95554737    -0.45200
H931        H  0.90993711  0.82512716  0.85650729     0.08500
C932        C  0.92482405  0.72958052  0.14238666    -0.05300
Cl933      Cl  0.00050880  0.76241771  0.99878161    -0.48300
C934        C  0.60258444  0.76043548  0.15798587     0.44200
H935        H  0.91956851  0.65553131  0.90595496     0.08400
N936        N  0.92491508  0.79583174  0.14156562    -0.45000
C937        C  0.85213013  0.61664448  0.05143825    -0.14800
C938        C  0.87233154  0.62284657  0.00335079    -0.30000
H939        H  0.85857017  0.63298606  0.09027176     0.14200
H940        H  0.86405479  0.60743923  0.96436306     0.14800
C941        C  0.62241079  0.90356863  0.99271432    -0.14800
C942        C  0.64756050  0.91133593  0.03541972    -0.30000
H943        H  0.62545909  0.91846921  0.95185181     0.14200
H944        H  0.64658309  0.89501671  0.07529147     0.14800
C945        C  0.87429379  0.90608097  0.99623250    -0.14800
C946        C  0.85319309  0.91466187  0.04291508    -0.30000
H947        H  0.86652643  0.91930756  0.95536257     0.14200
H948        H  0.85973763  0.90110720  0.08391138     0.14800
C949        C  0.63064756  0.62016463  0.01404816    -0.14800
C950        C  0.64500028  0.61023893  0.06578256    -0.30000
H951        H  0.64495806  0.60954373  0.97551441     0.14200
H952        H  0.63033136  0.61975782  0.10462616     0.14800
C953        C  0.82765983  0.76029926  0.19147789    -0.11600
C954        C  0.86159514  0.76556907  0.17574646    -0.13200
C955        C  0.67925233  0.75905373  0.18540674    -0.11600
C956        C  0.64465367  0.76250973  0.17139749    -0.13200
C957        C  0.74975383  0.85141676  0.33077708    -0.11600
C958        C  0.75028792  0.81725877  0.31552428    -0.13200
C959        C  0.75060436  0.66733829  0.30933865    -0.11600
C960        C  0.74867536  0.63328996  0.32497218    -0.13200
C961        C  0.90166408  0.84267050  0.45647881    -0.14800
C962        C  0.89478935  0.86401811  0.50333784    -0.30000
H963        H  0.88590014  0.84824509  0.41668409     0.14200
H964        H  0.90983623  0.85697177  0.54328372     0.14800
C965        C  0.61359022  0.61912777  0.50882448    -0.14800
C966        C  0.60463358  0.63934460  0.46148097    -0.30000
H967        H  0.60210193  0.62853821  0.54994136     0.14200
H968        H  0.61494194  0.62955246  0.41991457     0.14800
C969        C  0.59665890  0.83783800  0.53514670    -0.14800
C970        C  0.61239114  0.85928822  0.49311364    -0.30000
H971        H  0.60216780  0.84487166  0.57975922     0.14200
H972        H  0.60565565  0.85160893  0.44897561     0.14800
C973        C  0.89691941  0.61331544  0.49126227    -0.14800
C974        C  0.90004451  0.63882898  0.44791827    -0.30000
H975        H  0.91518293  0.61685821  0.52935877     0.14200
H976        H  0.88055775  0.63698435  0.41088073     0.14800
C977        C  0.85633136  0.75591899  0.82679246    -0.11600
C978        C  0.82228648  0.75022879  0.81092296    -0.13200
C979        C  0.67341890  0.74932674  0.81176296    -0.11600
C980        C  0.63973775  0.75518536  0.82881353    -0.13200
C981        C  0.74799727  0.81089264  0.68698171    -0.11600
C982        C  0.74927103  0.84547244  0.67373725    -0.13200
C983        C  0.74892256  0.66053651  0.68445480    -0.11600
C984        C  0.75124382  0.62671969  0.66749185    -0.13200
loop_ 
_geom_bond_atom_site_label_1 
_geom_bond_atom_site_label_2 
_geom_bond_distance 
_geom_bond_site_symmetry_2 
_ccdc_geom_bond_type 
C1            C2   1.529       .  S
C1            C7   1.555       .  S
C1            C5   1.531       .  S
C1          C245   1.493       .  S
C2            H9   1.087       .  S
C2            C3   1.362       .  D
C3            C4   1.554       .  S
C3          C240   1.461       .  S
C4            C8   1.534       .  S
C4            C6   1.555       .  S
C4           H10   1.111       .  S
C5           H11   1.087       .  S
C5            C6   1.364       .  D
C6          C241   1.464       .  S
C7           H12   1.086       .  S
C7            C8   1.379       .  D
C8          C243   1.460       .  S
C13          N31   1.348       .  A
C13          C50   1.451       .  S
C13         C227   1.462       .  S
N14          N31   1.323       .  A
N14          N36   1.321       .  A
N14        Co297   2.087   1_545  S
C15          N40   1.347       .  A
C15          C53   1.460       .  S
C15          H60   1.081       .  S
H16          C57   1.081       .  S
C17          N41   1.335       .  A
C17          C21   1.453       .  S
C17          H46   1.081       .  S
Co18         N58   2.082       .  S
Co18         N34   2.097       .  S
Co18        N282   2.075       .  S
Co18        N272   2.097       .  S
Co18        Cl62   2.456       .  S
N19          C57   1.348       .  A
N19          N26   1.320       .  A
N19        Co266   2.103   1_545  S
Co20         N40   2.105       .  S
Co20         N27   2.086       .  S
Co20        N265   2.099       .  S
Co20        N269   2.093       .  S
Co20        Cl62   2.454       .  S
C21          N59   1.349       .  A
C21         C235   1.466       .  S
N22          N29   1.319       .  A
N22          N52   1.332       .  A
N22        Co301   2.109   1_545  S
N23          N41   1.321       .  A
N23          N59   1.326       .  A
N23        Co266   2.088   1_545  S
N24          C53   1.351       .  A
N24          N34   1.329       .  A
H25          C50   1.081       .  S
N26          N47   1.331       .  A
N26        Co264   2.107   1_545  S
N27          N45   1.321       .  A
N27          N32   1.325       .  A
C28          N32   1.347       .  A
C28          C56   1.455       .  S
C28         C224   1.465       .  S
N29          C44   1.348       .  A
N29        Co297   2.103   1_545  S
C30          N58   1.342       .  A
C30          C33   1.455       .  S
C30          H64   1.081       .  S
C33          N54   1.345       .  A
C33         C232   1.463       .  S
N34          N40   1.320       .  A
N35          C61   1.348       .  A
N35          N37   1.319       .  A
N35         Co51   2.102       .  S
N36          C50   1.340       .  A
N36        Co264   2.076   1_545  S
N37          N65   1.330       .  A
N37         Co55   2.102       .  S
H38          C61   1.080       .  S
H39          C56   1.081       .  S
N41        Co301   2.073   1_545  S
N42          N54   1.321       .  A
N42          N58   1.321       .  A
N42         Co51   2.078       .  S
C43          N47   1.352       .  A
C43          C57   1.462       .  S
C43         C246   1.461       .  S
C44          C63   1.462       .  S
C44          H48   1.081       .  S
N45          C56   1.337       .  A
N45         Co55   2.077       .  S
C49          N65   1.352       .  A
C49          C61   1.460       .  S
C49         C219   1.459       .  S
Co51        N260   2.083       .  S
Co51        N275   2.099       .  S
Co51        Cl62   2.451       .  S
N52          C63   1.354       .  A
C53         C244   1.455       .  S
Co55        N268   2.104       .  S
Co55        N287   2.072       .  S
Co55        Cl62   2.450       .  S
C63         C222   1.465       .  S
N66          C70   1.350       .  A
N66         C563   1.350   1_455  A
N66          H98   1.034       .  S
N67          C74   1.349       .  A
N67          C75   1.348       .  A
N68          C72   1.352       .  A
N68         C565   1.352   1_455  A
N68          H99   1.037       .  S
N69          C76   1.348       .  A
N69          C77   1.348       .  A
C70          C78   1.387       .  A
C70          C86   1.409       .  A
C71         N558   1.350       .  A
C71          C87   1.411       .  A
C71          C79   1.387       .  A
C72          C80   1.387       .  A
C72          C89   1.412       .  A
C73         N560   1.352       .  A
C73          C88   1.412       .  A
C73          C81   1.387       .  A
C74          C86   1.409       .  A
C74          C82   1.387       .  A
C75          C89   1.406       .  A
C75          C83   1.386       .  A
C76          C84   1.386       .  A
C76          C87   1.407       .  A
C77          C85   1.387       .  A
C77          C88   1.407       .  A
C78          H90   1.082       .  S
C78         C571   1.374   1_455  A
C79          H91   1.083       .  S
C79         C570   1.374       .  A
C80          H92   1.083       .  S
C80         C573   1.373   1_455  A
C81          H93   1.083       .  S
C81         C572   1.374       .  A
C82          H94   1.082       .  S
C82          C83   1.374       .  A
C83          H95   1.082       .  S
C84          H96   1.082       .  S
C84          C85   1.373       .  A
C85          H97   1.083       .  S
C86         C231   1.472       .  S
C87         C223   1.473       .  S
C88         C236   1.474       .  S
C89         C228   1.474       .  S
C100        C101   1.530       .  S
C100        C106   1.556       .  S
C100        C104   1.533       .  S
C100        C221   1.498       .  S
C101        H108   1.087       .  S
C101        C102   1.363       .  D
C102        C103   1.555       .  S
C102        C217   1.463       .  S
C103        C107   1.536       .  S
C103        C105   1.556       .  S
C103        H109   1.111       .  S
C104        H110   1.087       .  S
C104        C105   1.365       .  D
C105        C215   1.468       .  S
C106        H111   1.086       .  S
C106        C107   1.380       .  D
C107        C220   1.463       .  S
N112        C117   1.349       .  A
N112        C116   1.348       .  A
N112        H144   1.037       .  S
N113        C121   1.349       .  A
N113        C366   1.347   1_545  A
N114        C119   1.349   1_556  A
N114        C118   1.347       .  A
N114        H145   1.035       .  S
N115        C123   1.346       .  A
N115        C368   1.347   1_545  A
C116        C124   1.388       .  A
C116        C132   1.409       .  A
C117        C133   1.409       .  A
C117        C125   1.388       .  A
C118        C126   1.385   1_556  A
C118        C135   1.405       .  A
C119        C134   1.410       .  A
C119        C127   1.389       .  A
C120        N359   1.349       .  A
C120        C132   1.410       .  A
C120        C128   1.386       .  A
C121        C135   1.411       .  A
C121        C129   1.386       .  A
C122        N361   1.350       .  A
C122        C130   1.387       .  A
C122        C133   1.412       .  A
C123        C131   1.388       .  A
C123        C134   1.410   1_556  A
C124        H136   1.082       .  S
C124        C125   1.375       .  A
C125        H137   1.083       .  S
C126        H138   1.082       .  S
C126        C127   1.377       .  A
C127        H139   1.082       .  S
C128        H140   1.082       .  S
C128        C375   1.371       .  A
C129        H141   1.082       .  S
C129        C374   1.369   1_545  A
C130        H142   1.082       .  S
C130        C377   1.369       .  A
C131        H143   1.082       .  S
C131        C376   1.371   1_545  A
C132        C204   1.472       .  S
C133        C208   1.473       .  S
C134        C199   1.468       .  S
C135        C212   1.475       .  S
C146        N164   1.339       .  A
C146        C183   1.463   1_554  S
C146        C211   1.459       .  S
N147        N164   1.319       .  A
N147        N169   1.320   1_554  A
N147       Co676   2.064   1_455  S
C148        N173   1.349       .  A
C148        C186   1.461       .  S
C148        H193   1.080       .  S
H149        C190   1.081       .  S
C150        N174   1.338       .  A
C150        C154   1.457       .  S
C150        H179   1.081       .  S
Co151       N191   2.061       .  S
Co151       N167   2.103       .  S
Co151       N661   2.092       .  S
Co151       N651   2.085       .  S
Co151      Cl195   2.452       .  S
N152        C190   1.352       .  A
N152        N159   1.321       .  A
N152       Co645   2.119   1_455  S
Co153       N173   2.097       .  S
Co153       N160   2.093       .  S
Co153       N644   2.118       .  S
Co153       N648   2.067       .  S
Co153      Cl195   2.457       .  S
C154        N192   1.345   1_554  A
C154        C203   1.462       .  S
N155        N162   1.319       .  A
N155        N185   1.331       .  A
N155       Co680   2.101   1_455  S
N156        N174   1.321   1_556  A
N156        N192   1.323       .  A
N156       Co645   2.078   1_455  S
N157        C186   1.350       .  A
N157        N167   1.328       .  A
H158        C183   1.081       .  S
N159        N180   1.327       .  A
N159       Co643   2.089       .  S
N160        N178   1.321   1_556  A
N160        N165   1.326       .  A
C161        N165   1.349   1_554  A
C161        C189   1.452       .  S
C161        C207   1.464       .  S
N162        C177   1.346       .  A
N162       Co676   2.101   1_455  S
C163        N191   1.334       .  A
C163        C166   1.443       .  S
C163        H197   1.081       .  S
C166        N187   1.350   1_556  A
C166        C200   1.454       .  S
N167        N173   1.319       .  A
N168        C194   1.343       .  A
N168        N170   1.319       .  A
N168       Co184   2.083       .  S
N169        C183   1.344       .  A
N169       Co643   2.090       .  S
N170        N198   1.335       .  A
N170       Co188   2.125       .  S
H171        C194   1.081       .  S
H172        C189   1.081       .  S
N174       Co680   2.077   1_455  S
N175        N187   1.323       .  A
N175        N191   1.320   1_554  A
N175       Co184   2.084       .  S
C176        N180   1.349       .  A
C176        C190   1.467       .  S
C176        C242   1.460       .  S
C177        C196   1.457       .  S
C177        H181   1.080       .  S
N178        C189   1.334       .  A
N178       Co188   2.068       .  S
C182        N198   1.358       .  A
C182        C194   1.454       .  S
C182        C216   1.462       .  S
Co184       N639   2.063       .  S
Co184       N654   2.099       .  S
Co184      Cl195   2.451   1_554  S
N185        C196   1.353       .  A
C186        C239   1.456       .  S
Co188       N647   2.105       .  S
Co188       N666   2.089       .  S
Co188      Cl195   2.448   1_554  S
C196        C218   1.459       .  S
C199        H201   1.086       .  S
C199        C200   1.332   1_554  D
C200        H202   1.088       .  S
C203        H205   1.087   1_554  S
C203        C204   1.337       .  D
C204        H206   1.085       .  S
C207        H209   1.086   1_554  S
C207        C208   1.340       .  D
C208        H210   1.086       .  S
C211        H213   1.088       .  S
C211        C212   1.333   1_554  D
C212        H214   1.086       .  S
C215        C216   1.222       .  T
C217        C218   1.219       .  T
C219        C220   1.219       .  T
C221        C222   1.223       .  T
C223        H225   1.086       .  S
C223        C224   1.339       .  D
C224        H226   1.087       .  S
C227        H229   1.087       .  S
C227        C228   1.338       .  D
C228        H230   1.087       .  S
C231        H233   1.087       .  S
C231        C232   1.340       .  D
C232        H234   1.087       .  S
C235        H237   1.086       .  S
C235        C236   1.340       .  D
C236        H238   1.086       .  S
C239        C240   1.218       .  T
C241        C242   1.220       .  T
C243        C244   1.217       .  T
C245        C246   1.221       .  T
C247        C248   1.526       .  S
C247        C253   1.555       .  S
C247        C251   1.528       .  S
C247        C491   1.485       .  S
C248        H255   1.088       .  S
C248        C249   1.359       .  D
C249        C250   1.553       .  S
C249        C486   1.457       .  S
C250        C254   1.536       .  S
C250        C252   1.552       .  S
C250        H256   1.111       .  S
C251        H257   1.087       .  S
C251        C252   1.362       .  D
C252        C487   1.457       .  S
C253        H258   1.086       .  S
C253        C254   1.380       .  D
C254        C489   1.461       .  S
C259        N277   1.347       .  A
C259        C296   1.450       .  S
C259        C473   1.462       .  S
N260        N277   1.322       .  A
N260        N282   1.320       .  A
C261        N286   1.347       .  A
C261        C299   1.457       .  S
C261        H306   1.080       .  S
H262        C303   1.081       .  S
C263        N287   1.337       .  A
C263        C267   1.454       .  S
C263        H292   1.081       .  S
Co264       N304   2.078       .  S
Co264       N280   2.101       .  S
Co264      Cl308   2.456       .  S
N265        C303   1.347       .  A
N265        N272   1.320       .  A
Co266       N286   2.101       .  S
Co266       N273   2.084       .  S
Co266      Cl308   2.459       .  S
C267        N305   1.350       .  A
C267        C481   1.468       .  S
N268        N275   1.319       .  A
N268        N298   1.331       .  A
N269        N287   1.320       .  A
N269        N305   1.325       .  A
N270        C299   1.352       .  A
N270        N280   1.330       .  A
H271        C296   1.081       .  S
N272        N293   1.329       .  A
N273        N291   1.321       .  A
N273        N278   1.324       .  A
C274        N278   1.346       .  A
C274        C302   1.456       .  S
C274        C470   1.464       .  S
N275        C290   1.347       .  A
C276        N304   1.341       .  A
C276        C279   1.452       .  S
C276        H310   1.081       .  S
C279        N300   1.347       .  A
C279        C478   1.463       .  S
N280        N286   1.320       .  A
N281        C307   1.349       .  A
N281        N283   1.318       .  A
N281       Co297   2.104       .  S
N282        C296   1.339       .  A
N283        N311   1.330       .  A
N283       Co301   2.100       .  S
H284        C307   1.081       .  S
H285        C302   1.081       .  S
N288        N300   1.322       .  A
N288        N304   1.321       .  A
N288       Co297   2.083       .  S
C289        N293   1.349       .  A
C289        C303   1.459       .  S
C289        C492   1.453       .  S
C290        C309   1.458       .  S
C290        H294   1.080       .  S
N291        C302   1.339       .  A
N291       Co301   2.082       .  S
C295        N311   1.352       .  A
C295        C307   1.462       .  S
C295        C465   1.461       .  S
Co297      Cl308   2.451       .  S
N298        C309   1.352       .  A
C299        C490   1.457       .  S
Co301      Cl308   2.448       .  S
C309        C468   1.460       .  S
N312        C809   1.351   1_455  A
N312        C316   1.351       .  A
N312        H344   1.036       .  S
N313        C320   1.349       .  A
N313        C321   1.348       .  A
N314        C811   1.351   1_455  A
N314        C318   1.350       .  A
N314        H345   1.036       .  S
N315        C322   1.348       .  A
N315        C323   1.350       .  A
C316        C324   1.387       .  A
C316        C332   1.411       .  A
C317        N804   1.353       .  A
C317        C333   1.417       .  A
C317        C325   1.387       .  A
C318        C326   1.388       .  A
C318        C335   1.410       .  A
C319        N806   1.350       .  A
C319        C334   1.408       .  A
C319        C327   1.385       .  A
C320        C332   1.407       .  A
C320        C328   1.386       .  A
C321        C335   1.408       .  A
C321        C329   1.387       .  A
C322        C330   1.387       .  A
C322        C333   1.409       .  A
C323        C331   1.386       .  A
C323        C334   1.409       .  A
C324        H336   1.083       .  S
C324        C817   1.373   1_455  A
C325        H337   1.082       .  S
C325        C816   1.369       .  A
C326        H338   1.082       .  S
C326        C819   1.373   1_455  A
C327        H339   1.083       .  S
C327        C818   1.374       .  A
C328        H340   1.083       .  S
C328        C329   1.374       .  A
C329        H341   1.082       .  S
C330        H342   1.082       .  S
C330        C331   1.373       .  A
C331        H343   1.083       .  S
C332        C477   1.473       .  S
C333        C469   1.480       .  S
C334        C482   1.475       .  S
C335        C474   1.472       .  S
C346        C347   1.530       .  S
C346        C352   1.555       .  S
C346        C350   1.527       .  S
C346        C467   1.492       .  S
C347        H354   1.087       .  S
C347        C348   1.363       .  D
C348        C349   1.557       .  S
C348        C463   1.465       .  S
C349        C353   1.541       .  S
C349        C351   1.559       .  S
C349        H355   1.111       .  S
C350        H356   1.088       .  S
C350        C351   1.361       .  D
C351        C461   1.464       .  S
C352        H357   1.086       .  S
C352        C353   1.380       .  D
C353        C466   1.466       .  S
N358        C363   1.348       .  A
N358        C362   1.350   1_556  A
N358        H390   1.035       .  S
N359        C367   1.348       .  A
N360        C365   1.349       .  A
N360        C364   1.351       .  A
N360        H391   1.037       .  S
N361        C369   1.349       .  A
C362        C370   1.388       .  A
C362        C378   1.410       .  A
C363        C379   1.410       .  A
C363        C371   1.387   1_556  A
C364        C372   1.387       .  A
C364        C381   1.411       .  A
C365        C380   1.410       .  A
C365        C373   1.387       .  A
C366        C378   1.411   1_556  A
C366        C374   1.388       .  A
C367        C381   1.408       .  A
C367        C375   1.386       .  A
C368        C376   1.387       .  A
C368        C379   1.409       .  A
C369        C377   1.386       .  A
C369        C380   1.410       .  A
C370        H382   1.082       .  S
C370        C371   1.376       .  A
C371        H383   1.082       .  S
C372        H384   1.082       .  S
C372        C373   1.376       .  A
C373        H385   1.082       .  S
C374        H386   1.081       .  S
C375        H387   1.082       .  S
C376        H388   1.083       .  S
C377        H389   1.082       .  S
C378        C450   1.472       .  S
C379        C454   1.469       .  S
C380        C445   1.472       .  S
C381        C458   1.474       .  S
C392        N410   1.344       .  A
C392        C429   1.459   1_554  S
C392        C457   1.466       .  S
N393        N410   1.320       .  A
N393        N415   1.321   1_554  A
N393       Co922   2.072       .  S
C394        N419   1.346       .  A
C394        C432   1.457       .  S
C394        H439   1.081       .  S
H395        C436   1.080       .  S
C396        N420   1.341       .  A
C396        C400   1.460   1_554  S
C396        H425   1.081       .  S
Co397       N907   2.090       .  S
Co397       N897   2.100       .  S
Co397       N437   2.078       .  S
Co397       N413   2.107       .  S
Co397      Cl441   2.457   1_556  S
N398        C436   1.348       .  A
N398        N405   1.319       .  A
N398       Co891   2.105   1_455  S
Co399       N890   2.114       .  S
Co399       N894   2.065       .  S
Co399       N419   2.090       .  S
Co399       N406   2.093       .  S
Co399      Cl441   2.450   1_556  S
C400        N438   1.341       .  A
C400        C449   1.458       .  S
N401        N408   1.319       .  A
N401        N431   1.333       .  A
N401       Co926   2.111       .  S
N402        N420   1.321   1_556  A
N402        N438   1.319       .  A
N402       Co891   2.069   1_455  S
N403        C432   1.352       .  A
N403        N413   1.329       .  A
H404        C429   1.081       .  S
N405        N426   1.328       .  A
N405       Co889   2.089   1_455  S
N406        N424   1.321   1_556  A
N406        N411   1.324       .  A
C407        N411   1.350   1_554  A
C407        C435   1.441       .  S
C407        C453   1.453       .  S
N408        C423   1.345       .  A
N408       Co922   2.098       .  S
C409        N437   1.340       .  A
C409        C412   1.452   1_556  S
C409        H443   1.081       .  S
C412        N433   1.346       .  A
C412        C446   1.460       .  S
N413        N419   1.319       .  A
N414        C440   1.347       .  A
N414        N416   1.319       .  A
N414       Co430   2.098       .  S
N415        C429   1.344       .  A
N415       Co889   2.090   1_455  S
N416        N444   1.332       .  A
N416       Co434   2.108       .  S
H417        C440   1.081       .  S
H418        C435   1.081       .  S
N420       Co926   2.084       .  S
N421        N433   1.321       .  A
N421        N437   1.321   1_554  A
N421       Co430   2.078       .  S
C422        N426   1.349       .  A
C422        C436   1.459       .  S
C422        C488   1.453       .  S
C423        C442   1.457       .  S
C423        H427   1.081       .  S
N424        C435   1.333       .  A
N424       Co434   2.055       .  S
C428        N444   1.353       .  A
C428        C440   1.459       .  S
C428        C462   1.461       .  S
Co430       N885   2.073       .  S
Co430       N900   2.101       .  S
Co430      Cl441   2.446       .  S
N431        C442   1.355       .  A
C432        C485   1.454       .  S
Co434       N893   2.089       .  S
Co434       N912   2.080       .  S
Co434      Cl441   2.452       .  S
C442        C464   1.461       .  S
C445        H447   1.087       .  S
C445        C446   1.339       .  D
C446        H448   1.087   1_554  S
C449        H451   1.088       .  S
C449        C450   1.333   1_556  D
C450        H452   1.085       .  S
C453        H455   1.088       .  S
C453        C454   1.332   1_554  D
C454        H456   1.086       .  S
C457        H459   1.087   1_554  S
C457        C458   1.342       .  D
C458        H460   1.086       .  S
C461        C462   1.220       .  T
C463        C464   1.221       .  T
C465        C466   1.221       .  T
C467        C468   1.220       .  T
C469        H471   1.086       .  S
C469        C470   1.340       .  D
C470        H472   1.087       .  S
C473        H475   1.087       .  S
C473        C474   1.337       .  D
C474        H476   1.087       .  S
C477        H479   1.087       .  S
C477        C478   1.338       .  D
C478        H480   1.087       .  S
C481        H483   1.087       .  S
C481        C482   1.342       .  D
C482        H484   1.085       .  S
C485        C486   1.216       .  T
C487        C488   1.216       .  T
C489        C490   1.218       .  T
C491        C492   1.216       .  T
C493        C494   1.532       .  S
C493        C499   1.553       .  S
C493        C497   1.531       .  S
C493        C737   1.492       .  S
C494        H501   1.087       .  S
C494        C495   1.364       .  D
C495        C496   1.552       .  S
C495        C732   1.461       .  S
C496        C500   1.536       .  S
C496        C498   1.553       .  S
C496        H502   1.111       .  S
C497        H503   1.087       .  S
C497        C498   1.364       .  D
C498        C733   1.463       .  S
C499        H504   1.086       .  S
C499        C500   1.378       .  D
C500        C735   1.459       .  S
C505        N523   1.345       .  A
C505        C542   1.455       .  S
C505        C719   1.464       .  S
N506        N523   1.321       .  A
N506        N528   1.320       .  A
N506       Co789   2.077   1_545  S
C507        N532   1.347       .  A
C507        C545   1.458       .  S
C507        H552   1.081       .  S
H508        C549   1.081       .  S
C509        N533   1.336       .  A
C509        C513   1.454       .  S
C509        H538   1.081       .  S
Co510       N774   2.072       .  S
Co510       N764   2.102       .  S
Co510       N550   2.083       .  S
Co510       N526   2.098       .  S
Co510      Cl554   2.456       .  S
N511        C549   1.346       .  A
N511        N518   1.321       .  A
N511       Co758   2.098   1_545  S
Co512       N757   2.108       .  S
Co512       N761   2.087       .  S
Co512       N532   2.101       .  S
Co512       N519   2.086       .  S
Co512      Cl554   2.455       .  S
C513        N551   1.349       .  A
C513        C727   1.466       .  S
N514        N521   1.319       .  A
N514        N544   1.331       .  A
N514       Co793   2.104   1_545  S
N515        N533   1.321       .  A
N515        N551   1.326       .  A
N515       Co758   2.090   1_545  S
N516        C545   1.351       .  A
N516        N526   1.330       .  A
H517        C542   1.081       .  S
N518        N539   1.331       .  A
N518       Co756   2.114   1_545  S
N519        N537   1.320       .  A
N519        N524   1.323       .  A
C520        N524   1.347       .  A
C520        C548   1.456       .  S
C520        C716   1.465       .  S
N521        C536   1.345       .  A
N521       Co789   2.090   1_545  S
C522        N550   1.341       .  A
C522        C525   1.454       .  S
C522        H556   1.081       .  S
C525        N546   1.348       .  A
C525        C724   1.469       .  S
N526        N532   1.320       .  A
N527        C553   1.346       .  A
N527        N529   1.319       .  A
N527       Co543   2.096       .  S
N528        C542   1.342       .  A
N528       Co756   2.084   1_545  S
N529        N557   1.329       .  A
N529       Co547   2.100       .  S
H530        C553   1.080       .  S
H531        C548   1.081       .  S
N533       Co793   2.072   1_545  S
N534        N546   1.324       .  A
N534        N550   1.321       .  A
N534       Co543   2.089       .  S
C535        N539   1.354       .  A
C535        C549   1.458       .  S
C535        C738   1.460       .  S
C536        C555   1.455       .  S
C536        H540   1.081       .  S
N537        C548   1.339       .  A
N537       Co547   2.078       .  S
C541        N557   1.350       .  A
C541        C553   1.457       .  S
C541        C711   1.454       .  S
Co543       N752   2.085       .  S
Co543       N767   2.102       .  S
Co543      Cl554   2.453       .  S
N544        C555   1.353       .  A
C545        C736   1.454       .  S
Co547       N760   2.098       .  S
Co547       N779   2.080       .  S
Co547      Cl554   2.450       .  S
C555        C714   1.454       .  S
N558        C562   1.351       .  A
N558        H590   1.036       .  S
N559        C566   1.351       .  A
N559        C567   1.349       .  A
N560        C564   1.350       .  A
N560        H591   1.036       .  S
N561        C568   1.349       .  A
N561        C569   1.348       .  A
C562        C570   1.386       .  A
C562        C578   1.410       .  A
C563        C579   1.410       .  A
C563        C571   1.387       .  A
C564        C572   1.388       .  A
C564        C581   1.412       .  A
C565        C580   1.412       .  A
C565        C573   1.387       .  A
C566        C578   1.411       .  A
C566        C574   1.386       .  A
C567        C581   1.409       .  A
C567        C575   1.386       .  A
C568        C576   1.386       .  A
C568        C579   1.409       .  A
C569        C577   1.387       .  A
C569        C580   1.407       .  A
C570        H582   1.082       .  S
C571        H583   1.082       .  S
C572        H584   1.083       .  S
C573        H585   1.082       .  S
C574        H586   1.082       .  S
C574        C575   1.375       .  A
C575        H587   1.082       .  S
C576        H588   1.082       .  S
C576        C577   1.373       .  A
C577        H589   1.083       .  S
C578        C723   1.479       .  S
C579        C715   1.474       .  S
C580        C728   1.476       .  S
C581        C720   1.476       .  S
C592        C593   1.530       .  S
C592        C598   1.553       .  S
C592        C596   1.527       .  S
C592        C713   1.486       .  S
C593        H600   1.087       .  S
C593        C594   1.363       .  D
C594        C595   1.554       .  S
C594        C709   1.463       .  S
C595        C599   1.535       .  S
C595        C597   1.553       .  S
C595        H601   1.111       .  S
C596        H602   1.088       .  S
C596        C597   1.360       .  D
C597        C707   1.458       .  S
C598        H603   1.086       .  S
C598        C599   1.379       .  D
C599        C712   1.457       .  S
N604        C609   1.351       .  A
N604        C608   1.349       .  A
N604        H636   1.035       .  S
N605        C858   1.349   1_545  A
N605        C613   1.350       .  A
N606        C611   1.348       .  A
N606        C610   1.351   1_554  A
N606        H637   1.036       .  S
N607        C860   1.349   1_545  A
N607        C615   1.348       .  A
C608        C616   1.389       .  A
C608        C624   1.415       .  A
C609        C625   1.412   1_554  A
C609        C617   1.386   1_554  A
C610        C618   1.387       .  A
C610        C627   1.410       .  A
C611        C626   1.411       .  A
C611        C619   1.388   1_554  A
C612        N851   1.347       .  A
C612        C624   1.410       .  A
C612        C620   1.389       .  A
C613        C627   1.413   1_554  A
C613        C621   1.388       .  A
C614        N853   1.350       .  A
C614        C622   1.387       .  A
C614        C625   1.410   1_554  A
C615        C623   1.388       .  A
C615        C626   1.409       .  A
C616        H628   1.082   1_554  S
C616        C617   1.378   1_554  A
C617        H629   1.082       .  S
C618        H630   1.082       .  S
C618        C619   1.377       .  A
C619        H631   1.082       .  S
C620        H632   1.082       .  S
C620        C867   1.372       .  A
C621        H633   1.081       .  S
C621        C866   1.369   1_545  A
C622        H634   1.082       .  S
C622        C869   1.368       .  A
C623        H635   1.082       .  S
C623        C868   1.371   1_545  A
C624        C696   1.471       .  S
C625        C700   1.478       .  S
C626        C691   1.470       .  S
C627        C704   1.478       .  S
C638        N656   1.339   1_556  A
C638        C675   1.464       .  S
C638        C703   1.461   1_556  S
N639        N656   1.318       .  A
N639        N661   1.320   1_554  A
C640        N665   1.349       .  A
C640        C678   1.462       .  S
C640        H685   1.081       .  S
H641        C682   1.081       .  S
C642        N666   1.340       .  A
C642        C646   1.459       .  S
C642        H671   1.081       .  S
Co643       N683   2.071   1_455  S
Co643       N659   2.098   1_455  S
Co643      Cl687   2.452   1_456  S
N644        C682   1.352       .  A
N644        N651   1.319       .  A
Co645       N665   2.101       .  S
Co645       N652   2.103       .  S
Co645      Cl687   2.456   1_556  S
C646        N684   1.342   1_554  A
C646        C695   1.459       .  S
N647        N654   1.319       .  A
N647        N677   1.332       .  A
N648        N666   1.322   1_556  A
N648        N684   1.321       .  A
N649        C678   1.349       .  A
N649        N659   1.328       .  A
H650        C675   1.081       .  S
N651        N672   1.327       .  A
N652        N670   1.322   1_556  A
N652        N657   1.329       .  A
C653        N657   1.353   1_554  A
C653        C681   1.441       .  S
C653        C699   1.461       .  S
N654        C669   1.346       .  A
C655        N683   1.338       .  A
C655        C658   1.447       .  S
C655        H689   1.081       .  S
C658        N679   1.349   1_556  A
C658        C692   1.459       .  S
N659        N665   1.320       .  A
N660        C686   1.345       .  A
N660        N662   1.318       .  A
N660       Co676   2.086       .  S
N661        C675   1.345       .  A
N662        N690   1.331       .  A
N662       Co680   2.108       .  S
H663        C686   1.081       .  S
H664        C681   1.081       .  S
N667        N679   1.323       .  A
N667        N683   1.320   1_554  A
N667       Co676   2.084       .  S
C668        N672   1.348       .  A
C668        C682   1.466       .  S
C668        C734   1.458       .  S
C669        C688   1.456       .  S
C669        H673   1.080       .  S
N670        C681   1.332       .  A
N670       Co680   2.063       .  S
C674        N690   1.352       .  A
C674        C686   1.456       .  S
C674        C708   1.455       .  S
Co676      Cl687   2.452       .  S
N677        C688   1.354       .  A
C678        C731   1.456       .  S
Co680      Cl687   2.448       .  S
C688        C710   1.458       .  S
C691        H693   1.087       .  S
C691        C692   1.334   1_554  D
C692        H694   1.087       .  S
C695        H697   1.087   1_554  S
C695        C696   1.335       .  D
C696        H698   1.086       .  S
C699        H701   1.088       .  S
C699        C700   1.333   1_554  D
C700        H702   1.086       .  S
C703        H705   1.088       .  S
C703        C704   1.334   1_554  D
C704        H706   1.086       .  S
C707        C708   1.217       .  T
C709        C710   1.219       .  T
C711        C712   1.216       .  T
C713        C714   1.217       .  T
C715        H717   1.085       .  S
C715        C716   1.339       .  D
C716        H718   1.087       .  S
C719        H721   1.087       .  S
C719        C720   1.340       .  D
C720        H722   1.087       .  S
C723        H725   1.086       .  S
C723        C724   1.341       .  D
C724        H726   1.087       .  S
C727        H729   1.087       .  S
C727        C728   1.340       .  D
C728        H730   1.086       .  S
C731        C732   1.218       .  T
C733        C734   1.219       .  T
C735        C736   1.216       .  T
C737        C738   1.220       .  T
C739        C740   1.528       .  S
C739        C745   1.556       .  S
C739        C743   1.532       .  S
C739        C983   1.495       .  S
C740        H747   1.087       .  S
C740        C741   1.361       .  D
C741        C742   1.557       .  S
C741        C978   1.464       .  S
C742        C746   1.537       .  S
C742        C744   1.558       .  S
C742        H748   1.111       .  S
C743        H749   1.087       .  S
C743        C744   1.364       .  D
C744        C979   1.468       .  S
C745        H750   1.086       .  S
C745        C746   1.380       .  D
C746        C981   1.463       .  S
C751        N769   1.348       .  A
C751        C788   1.448       .  S
C751        C965   1.461       .  S
N752        N769   1.323       .  A
N752        N774   1.321       .  A
C753        N778   1.348       .  A
C753        C791   1.461       .  S
C753        H798   1.081       .  S
H754        C795   1.081       .  S
C755        N779   1.338       .  A
C755        C759   1.456       .  S
C755        H784   1.081       .  S
Co756       N796   2.097       .  S
Co756       N772   2.102       .  S
Co756      Cl800   2.457       .  S
N757        C795   1.350       .  A
N757        N764   1.320       .  A
Co758       N778   2.104       .  S
Co758       N765   2.080       .  S
Co758      Cl800   2.457       .  S
C759        N797   1.348       .  A
C759        C973   1.467       .  S
N760        N767   1.319       .  A
N760        N790   1.329       .  A
N761        N779   1.321       .  A
N761        N797   1.325       .  A
N762        C791   1.352       .  A
N762        N772   1.330       .  A
H763        C788   1.081       .  S
N764        N785   1.330       .  A
N765        N783   1.321       .  A
N765        N770   1.323       .  A
C766        N770   1.346       .  A
C766        C794   1.455       .  S
C766        C962   1.462       .  S
N767        C782   1.348       .  A
C768        N796   1.347       .  A
C768        C771   1.464       .  S
C768        H802   1.081       .  S
C771        N792   1.342       .  A
C771        C970   1.467       .  S
N772        N778   1.320       .  A
N773        C799   1.347       .  A
N773        N775   1.318       .  A
N773       Co789   2.097       .  S
N774        C788   1.338       .  A
N775        N803   1.330       .  A
N775       Co793   2.102       .  S
H776        C799   1.080       .  S
H777        C794   1.081       .  S
N780        N792   1.320       .  A
N780        N796   1.321       .  A
N780       Co789   2.074       .  S
C781        N785   1.350       .  A
C781        C795   1.463       .  S
C781        C984   1.462       .  S
C782        C801   1.461       .  S
C782        H786   1.081       .  S
N783        C794   1.336       .  A
N783       Co793   2.076       .  S
C787        N803   1.352       .  A
C787        C799   1.458       .  S
C787        C957   1.457       .  S
Co789      Cl800   2.451       .  S
N790        C801   1.351       .  A
C791        C982   1.459       .  S
Co793      Cl800   2.447       .  S
C801        C960   1.457       .  S
N804        C808   1.354       .  A
N804        H836   1.035       .  S
N805        C812   1.350       .  A
N805        C813   1.349       .  A
N806        C810   1.349       .  A
N806        H837   1.033       .  S
N807        C814   1.348       .  A
N807        C815   1.349       .  A
C808        C816   1.388       .  A
C808        C824   1.416       .  A
C809        C825   1.411       .  A
C809        C817   1.388       .  A
C810        C818   1.390       .  A
C810        C827   1.413       .  A
C811        C826   1.411       .  A
C811        C819   1.386       .  A
C812        C824   1.411       .  A
C812        C820   1.386       .  A
C813        C827   1.414       .  A
C813        C821   1.387       .  A
C814        C822   1.387       .  A
C814        C825   1.407       .  A
C815        C823   1.386       .  A
C815        C826   1.407       .  A
C816        H828   1.081       .  S
C817        H829   1.082       .  S
C818        H830   1.082       .  S
C819        H831   1.082       .  S
C820        H832   1.082       .  S
C820        C821   1.375       .  A
C821        H833   1.082       .  S
C822        H834   1.083       .  S
C822        C823   1.373       .  A
C823        H835   1.082       .  S
C824        C969   1.483       .  S
C825        C961   1.471       .  S
C826        C974   1.476       .  S
C827        C966   1.474       .  S
C838        C839   1.525       .  S
C838        C844   1.555       .  S
C838        C842   1.530       .  S
C838        C959   1.489       .  S
C839        H846   1.088       .  S
C839        C840   1.359       .  D
C840        C841   1.554       .  S
C840        C955   1.456       .  S
C841        C845   1.536       .  S
C841        C843   1.554       .  S
C841        H847   1.111       .  S
C842        H848   1.087       .  S
C842        C843   1.364       .  D
C843        C953   1.461       .  S
C844        H849   1.086       .  S
C844        C845   1.379       .  D
C845        C958   1.461       .  S
N850        C855   1.350       .  A
N850        C854   1.347       .  A
N850        H882   1.034       .  S
N851        C859   1.347       .  A
N852        C857   1.347       .  A
N852        C856   1.351       .  A
N852        H883   1.037       .  S
N853        C861   1.349       .  A
C854        C862   1.387       .  A
C854        C870   1.406       .  A
C855        C871   1.409       .  A
C855        C863   1.387       .  A
C856        C864   1.388       .  A
C856        C873   1.411       .  A
C857        C872   1.405       .  A
C857        C865   1.386       .  A
C858        C870   1.411       .  A
C858        C866   1.386       .  A
C859        C873   1.405       .  A
C859        C867   1.385       .  A
C860        C868   1.385       .  A
C860        C871   1.407       .  A
C861        C869   1.387       .  A
C861        C872   1.410       .  A
C862        H874   1.083       .  S
C862        C863   1.376       .  A
C863        H875   1.082       .  S
C864        H876   1.082       .  S
C864        C865   1.376       .  A
C865        H877   1.082       .  S
C866        H878   1.082       .  S
C867        H879   1.082       .  S
C868        H880   1.082       .  S
C869        H881   1.082       .  S
C870        C942   1.470       .  S
C871        C946   1.473       .  S
C872        C937   1.472       .  S
C873        C950   1.475       .  S
C884        N902   1.343       .  A
C884        C921   1.459   1_554  S
C884        C949   1.466       .  S
N885        N902   1.320       .  A
N885        N907   1.321   1_554  A
C886        N911   1.349       .  A
C886        C924   1.461       .  S
C886        H931   1.081       .  S
H887        C928   1.081       .  S
C888        N912   1.339       .  A
C888        C892   1.458   1_554  S
C888        H917   1.081       .  S
Co889       N929   2.063       .  S
Co889       N905   2.110       .  S
Co889      Cl933   2.457   1_655  S
N890        C928   1.352       .  A
N890        N897   1.320       .  A
Co891       N911   2.099       .  S
Co891       N898   2.085       .  S
Co891      Cl933   2.452   1_655  S
C892        N930   1.341       .  A
C892        C941   1.456       .  S
N893        N900   1.318       .  A
N893        N923   1.329       .  A
N894        N912   1.321   1_556  A
N894        N930   1.320       .  A
N895        C924   1.352       .  A
N895        N905   1.330       .  A
H896        C921   1.081       .  S
N897        N918   1.329       .  A
N898        N916   1.321   1_556  A
N898        N903   1.324       .  A
C899        N903   1.348       .  A
C899        C927   1.455   1_556  S
C899        C945   1.465       .  S
N900        C915   1.346       .  A
C901        N929   1.335       .  A
C901        C904   1.445   1_556  S
C901        H935   1.081       .  S
C904        N925   1.348       .  A
C904        C938   1.455       .  S
N905        N911   1.319       .  A
N906        C932   1.343       .  A
N906        N908   1.319       .  A
N906       Co922   2.086   1_655  S
N907        C921   1.344       .  A
N908        N936   1.332       .  A
N908       Co926   2.112   1_655  S
H909        C932   1.081       .  S
H910        C927   1.081       .  S
N913        N925   1.323       .  A
N913        N929   1.321   1_554  A
N913       Co922   2.086   1_655  S
C914        N918   1.351       .  A
C914        C928   1.465       .  S
C914        C980   1.464       .  S
C915        C934   1.458       .  S
C915        H919   1.080       .  S
N916        C927   1.337       .  A
N916       Co926   2.078   1_655  S
C920        N936   1.355       .  A
C920        C932   1.454       .  S
C920        C954   1.456       .  S
Co922      Cl933   2.447   1_554  S
N923        C934   1.350       .  A
C924        C977   1.461       .  S
Co926      Cl933   2.454   1_554  S
C934        C956   1.453       .  S
C937        H939   1.086       .  S
C937        C938   1.335       .  D
C938        H940   1.087   1_554  S
C941        H943   1.087       .  S
C941        C942   1.333   1_556  D
C942        H944   1.086       .  S
C945        H947   1.087       .  S
C945        C946   1.339   1_556  D
C946        H948   1.085       .  S
C949        H951   1.087   1_554  S
C949        C950   1.343       .  D
C950        H952   1.086       .  S
C953        C954   1.218       .  T
C955        C956   1.216       .  T
C957        C958   1.218       .  T
C959        C960   1.218       .  T
C961        H963   1.085       .  S
C961        C962   1.337       .  D
C962        H964   1.087       .  S
C965        H967   1.087       .  S
C965        C966   1.336       .  D
C966        H968   1.087       .  S
C969        H971   1.085       .  S
C969        C970   1.337       .  D
C970        H972   1.088       .  S
C973        H975   1.087       .  S
C973        C974   1.340       .  D
C974        H976   1.086       .  S
C977        C978   1.220       .  T
C979        C980   1.222       .  T
C981        C982   1.219       .  T
C983        C984   1.222       .  T
