geometry optimzed in LAMMPS
_audit_creation_date              2020-12-01 
_audit_creation_method            'lammps2cif' 
_symmetry_space_group_name_H-M    'P1' 
_symmetry_Int_Tables_number       1 
_symmetry_cell_setting            triclinic 
loop_ 
_symmetry_equiv_pos_as_xyz 
  x,y,z 
_cell_length_a                    29.74942379 
_cell_length_b                    29.663428801585127 
_cell_length_c                    40.60563986976666 
_cell_angle_alpha                 89.9376532609203 
_cell_angle_beta                  89.71638502577657 
_cell_angle_gamma                 90.04898615593589 
loop_ 
_atom_site_label 
_atom_site_type_symbol 
_atom_site_fract_x 
_atom_site_fract_y 
_atom_site_fract_z 
_atom_site_charge 
O1          O  0.86820624  0.80606650  0.64899535    -0.73600
O2          O  0.92287716  0.92817931  0.65612110    -0.74500
O3          O  0.86542990  0.87582045  0.69647321    -0.63200
O4          O  0.92404805  0.85835544  0.60766187    -0.71600
O5          O  0.86414274  0.88901092  0.58432666    -0.71100
O6          O  0.80691315  0.90753687  0.67235556    -0.62400
O7          O  0.86467426  0.96031051  0.63163336    -0.74900
O8          O  0.80775718  0.83607882  0.62595770    -0.73700
Cu9        Cu  0.89728789  0.86626018  0.65311063     1.04600
Cu10       Cu  0.83383392  0.89935734  0.62766819     1.04300
C11         C  0.82925605  0.80157369  0.63651983     0.92600
C12         C  0.90305340  0.96345639  0.64553751     0.91800
C13         C  0.82646066  0.89396691  0.69838548     0.83900
C14         C  0.90255939  0.87020723  0.58184003     0.90200
O15         O  0.13335713  0.08462471  0.60693412    -0.73600
O16         O  0.12646419  0.13452207  0.69933331    -0.74500
O17         O  0.06973543  0.08067152  0.65938713    -0.63200
O18         O  0.19002748  0.13652562  0.64767476    -0.71600
O19         O  0.15854831  0.19897944  0.62919960    -0.71100
O20         O  0.03565354  0.14101606  0.63911333    -0.62400
O21         O  0.09268130  0.19508694  0.67946827    -0.74900
O22         O  0.10171970  0.14701282  0.58850435    -0.73700
Cu23       Cu  0.13079466  0.10685498  0.65401048     1.04600
Cu24       Cu  0.09588609  0.17262963  0.63344555     1.04300
C25         C  0.11962505  0.10884265  0.58285254     0.92600
C26         C  0.10908340  0.17346147  0.70377350     0.91800
C27         C  0.03383583  0.10115731  0.65115038     0.83900
C28         C  0.19382151  0.17672917  0.63686940     0.90200
O29         O  0.12259141  0.30287340  0.83327973    -0.73600
O30         O  0.13385568  0.35667504  0.92299460    -0.74500
O31         O  0.18840868  0.30237872  0.88268461    -0.63200
O32         O  0.06740253  0.35818341  0.87355369    -0.71600
O33         O  0.03481968  0.29868518  0.89684856    -0.71100
O34         O  0.15670573  0.24053678  0.90306822    -0.62400
O35         O  0.10355418  0.29525577  0.94460350    -0.74900
O36         O  0.08912357  0.24286729  0.85490706    -0.73700
Cu37       Cu  0.12888546  0.33221400  0.87733363     1.04600
Cu38       Cu  0.09471637  0.26723044  0.90058248     1.04300
C39         C  0.10510924  0.26383751  0.82997035     0.92600
C40         C  0.12207871  0.33378697  0.94819847     0.91800
C41         C  0.19167279  0.26230452  0.89382888     0.83900
C42         C  0.03234439  0.33818998  0.88443430     0.90200
O43         O  0.92349149  0.50967571  0.87079391    -0.73600
O44         O  0.87059230  0.63309765  0.87504632    -0.74500
O45         O  0.92552786  0.58091155  0.91753515    -0.63200
O46         O  0.86845836  0.56141081  0.82892140    -0.71600
O47         O  0.80851232  0.53195356  0.85319661    -0.71100
O48         O  0.86431672  0.55344482  0.94149644    -0.62400
O49         O  0.80940204  0.60535443  0.89849226    -0.74900
O50         O  0.86397134  0.48056605  0.89629469    -0.73700
Cu51       Cu  0.89908913  0.57219559  0.87224801     1.04600
Cu52       Cu  0.83437882  0.54187012  0.89821851     1.04300
C53         C  0.90254675  0.47579976  0.88275176     0.92600
C54         C  0.83150827  0.63915812  0.88723178     0.91800
C55         C  0.90378827  0.57008686  0.94363991     0.83900
C56         C  0.82963853  0.54320563  0.82695577     0.90200
O57         O  0.43145809  0.34595093  0.60119047    -0.73600
O58         O  0.44366310  0.29625177  0.69319679    -0.74500
O59         O  0.49781335  0.35064341  0.65074345    -0.63200
O60         O  0.37705716  0.29314765  0.64378970    -0.71600
O61         O  0.40843748  0.23018235  0.62538567    -0.71100
O62         O  0.53018684  0.29036927  0.62855933    -0.62400
O63         O  0.47754655  0.23608303  0.67283783    -0.74900
O64         O  0.46104316  0.28315441  0.58149003    -0.73700
Cu65       Cu  0.43651743  0.32366065  0.64797716     1.04600
Cu66       Cu  0.47050704  0.25779482  0.62642872     1.04300
C67         C  0.44409211  0.32201527  0.57661971     0.92600
C68         C  0.46187801  0.25761052  0.69751686     0.91800
C69         C  0.53270373  0.33048287  0.63988383     0.83900
C70         C  0.37351538  0.25246440  0.63399726     0.90200
O71         O  0.70668185  0.61883447  0.65014243    -0.73600
O72         O  0.64892530  0.49788727  0.65316197    -0.74500
O73         O  0.70302393  0.54865023  0.69693793    -0.63200
O74         O  0.65376989  0.56798021  0.60591695    -0.71600
O75         O  0.71566747  0.53846350  0.58447328    -0.71100
O76         O  0.76368368  0.51729189  0.67499203    -0.62400
O77         O  0.70903369  0.46642210  0.63010806    -0.74900
O78         O  0.76870176  0.58964963  0.62907653    -0.73700
Cu79       Cu  0.67600079  0.55921023  0.65229080     1.04600
Cu80       Cu  0.74146997  0.52672701  0.62896971     1.04300
C81         C  0.74655742  0.62403085  0.63925396     0.92600
C82         C  0.66908480  0.46333898  0.64172239     0.91800
C83         C  0.74175428  0.53070264  0.70028651     0.83900
C84         C  0.67726820  0.55689812  0.58075739     0.90200
O85         O  0.70800525  0.81853543  0.88120196    -0.73600
O86         O  0.64799696  0.93755785  0.87232181    -0.74500
O87         O  0.70425640  0.88438305  0.83112586    -0.63200
O88         O  0.65390439  0.87205248  0.92309791    -0.71600
O89         O  0.71531138  0.90437810  0.94257909    -0.71100
O90         O  0.76310511  0.92041631  0.85166225    -0.62400
O91         O  0.70647423  0.97291657  0.89406338    -0.74900
O92         O  0.76978726  0.85181384  0.89959194    -0.73700
Cu93       Cu  0.67635954  0.87717728  0.87623419     1.04600
Cu94       Cu  0.74072543  0.91374272  0.89766658     1.04300
C95         C  0.74836464  0.81608147  0.89139099     0.92600
C96         C  0.66673044  0.97379330  0.88211916     0.91800
C97         C  0.74267205  0.90314936  0.82721235     0.83900
C98         C  0.67738395  0.88555218  0.94754384     0.90200
O99         O  0.42619919  0.08810232  0.92367879    -0.73600
O100        O  0.43930895  0.14131811  0.83250347    -0.74500
O101        O  0.49247781  0.08504446  0.87297441    -0.63200
O102        O  0.37293545  0.14353932  0.88250566    -0.71600
O103        O  0.40476748  0.20426845  0.90355279    -0.71100
O104        O  0.52652860  0.14476990  0.89428668    -0.62400
O105        O  0.47189096  0.20177450  0.85388669    -0.74900
O106        O  0.45917137  0.14863942  0.94413639    -0.73700
Cu107      Cu  0.43171954  0.11238326  0.87720021     1.04600
Cu108      Cu  0.46681700  0.17694423  0.89971238     1.04300
C109        C  0.44035204  0.11034784  0.94852250     0.92600
C110        C  0.45687217  0.18042546  0.82897589     0.91800
C111        C  0.52831287  0.10519040  0.88186315     0.83900
C112        C  0.36949961  0.18329072  0.89423323     0.90200
O113        O  0.36986944  0.38157286  0.32907848    -0.73600
O114        O  0.42153881  0.36600624  0.41952936    -0.74500
O115        O  0.36785257  0.31295427  0.37752425    -0.63200
O116        O  0.42405929  0.43440694  0.37061302    -0.71600
O117        O  0.36406751  0.46661857  0.39324018    -0.71100
O118        O  0.30670962  0.34301361  0.39946669    -0.62400
O119        O  0.36039762  0.39688634  0.44117623    -0.74900
O120        O  0.30909528  0.41269425  0.35129868    -0.73700
Cu121      Cu  0.39795240  0.37281381  0.37342637     1.04600
Cu122      Cu  0.33289030  0.40600602  0.39700684     1.04300
C123        C  0.33085674  0.39900186  0.32606192     0.92600
C124        C  0.39878257  0.37846143  0.44473274     0.91800
C125        C  0.32868157  0.30824197  0.38988977     0.83900
C126        C  0.40348186  0.46952880  0.38069001     0.90200
O127        O  0.69796802  0.62896893  0.37925252    -0.73600
O128        O  0.57441377  0.57881755  0.37135097    -0.74500
O129        O  0.63096014  0.63250365  0.33033447    -0.63200
O130        O  0.64165104  0.57737954  0.42112884    -0.71600
O131        O  0.61399394  0.64015322  0.44231559    -0.71100
O132        O  0.60125961  0.69336283  0.35296512    -0.62400
O133        O  0.54481351  0.63967793  0.39460890    -0.74900
O134        O  0.67055668  0.69165698  0.40065782    -0.73700
Cu135      Cu  0.63699888  0.60218036  0.37472526     1.04600
Cu136      Cu  0.60653417  0.66833265  0.39833605     1.04300
C137        C  0.70432587  0.66813669  0.39111064     0.92600
C138        C  0.54028757  0.60042094  0.38203531     0.91800
C139        C  0.61538827  0.67256753  0.32752553     0.83900
C140        C  0.63059938  0.60090812  0.44628661     0.90200
O141        O  0.89332302  0.64981347  0.14042819    -0.73600
O142        O  0.01232272  0.59097598  0.15026810    -0.74500
O143        O  0.95764100  0.64649433  0.19104451    -0.63200
O144        O  0.94810331  0.59650169  0.09910978    -0.71600
O145        O  0.97912160  0.65885686  0.07966485    -0.71100
O146        O  0.99522845  0.70563855  0.17173502    -0.62400
O147        O  0.04773066  0.64967355  0.12833085    -0.74900
O148        O  0.92610782  0.71292545  0.12342221    -0.73700
Cu149      Cu  0.95195072  0.61885848  0.14589233     1.04600
Cu150      Cu  0.98840273  0.68397672  0.12506224     1.04300
C151        C  0.89052918  0.69068864  0.13104005     0.92600
C152        C  0.04858002  0.60993211  0.14069852     0.91800
C153        C  0.97750015  0.68418113  0.19579199     0.83900
C154        C  0.96106658  0.62046166  0.07459314     0.90200
O155        O  0.21807807  0.46654356  0.12752782    -0.73600
O156        O  0.27546241  0.34249106  0.12319140    -0.74500
O157        O  0.21957701  0.39480113  0.08133461    -0.63200
O158        O  0.27484937  0.41429741  0.16993557    -0.71600
O159        O  0.21521672  0.38271111  0.19306038    -0.71100
O160        O  0.15893205  0.36586207  0.10523900    -0.62400
O161        O  0.21435499  0.31281857  0.14583148    -0.74900
O162        O  0.15924694  0.43537307  0.15243482    -0.73700
Cu163      Cu  0.24920715  0.40568496  0.12467050     1.04600
Cu164      Cu  0.18495070  0.37330713  0.14996939     1.04300
C165        C  0.17902256  0.47006616  0.14061603     0.92600
C166        C  0.25370596  0.30801208  0.13364924     0.91800
C167        C  0.18062623  0.37688156  0.07930190     0.83900
C168        C  0.25399560  0.40084450  0.19568034     0.90200
O169        O  0.36746932  0.05543889  0.19877442    -0.73600
O170        O  0.42154067  0.07023126  0.10801503    -0.74500
O171        O  0.36557722  0.12234629  0.14903434    -0.63200
O172        O  0.42571021  0.00294843  0.15821542    -0.71600
O173        O  0.36751780  0.96799822  0.13575352    -0.71100
O174        O  0.30575309  0.09039906  0.12690844    -0.62400
O175        O  0.36219249  0.03638816  0.08628256    -0.74900
O176        O  0.30821298  0.02215970  0.17654856    -0.73700
Cu177      Cu  0.39712772  0.06358447  0.15429017     1.04600
Cu178      Cu  0.33382532  0.02778417  0.13070350     1.04300
C179        C  0.32837049  0.03784225  0.20177601     0.92600
C180        C  0.39942350  0.05728600  0.08277487     0.91800
C181        C  0.32656444  0.12591560  0.13638760     0.83900
C182        C  0.40699443  0.96677510  0.14825867     0.90200
O183        O  0.58057726  0.85424802  0.15652198    -0.73600
O184        O  0.70292024  0.80088801  0.14613282    -0.74500
O185        O  0.64635814  0.85400571  0.10547770    -0.63200
O186        O  0.63640831  0.79846564  0.19631331    -0.71600
O187        O  0.60483296  0.73818808  0.17396893    -0.71100
O188        O  0.61743428  0.79159808  0.08471095    -0.62400
O189        O  0.67384283  0.73862281  0.12540430    -0.74900
O190        O  0.54887406  0.79454219  0.13339544    -0.73700
Cu191      Cu  0.64246821  0.82903388  0.15191246     1.04600
Cu192      Cu  0.61007944  0.76359419  0.12869882     1.04300
C193        C  0.54563260  0.83403839  0.14600152     0.92600
C194        C  0.70832312  0.76144149  0.13428037     0.91800
C195        C  0.63365513  0.83088418  0.08054159     0.83900
C196        C  0.61986346  0.75875950  0.19914581     0.90200
O197        O  0.00296165  0.85104326  0.37563522    -0.73600
O198        O  0.88466702  0.78951741  0.38214583    -0.74500
O199        O  0.93735188  0.84066758  0.42579336    -0.63200
O200        O  0.95036500  0.79810836  0.33204148    -0.71600
O201        O  0.98718120  0.73774103  0.34977146    -0.71100
O202        O  0.96955926  0.77802861  0.44327860    -0.62400
O203        O  0.91783159  0.72643305  0.39829697    -0.74900
O204        O  0.03807144  0.79085443  0.39541811    -0.73700
Cu205      Cu  0.94284403  0.82195307  0.37823530     1.04600
Cu206      Cu  0.97946920  0.75600510  0.39721617     1.04300
C207        C  0.03883393  0.83166779  0.38522326     0.92600
C208        C  0.88208502  0.74863945  0.39160133     0.91800
C209        C  0.95063571  0.81562330  0.44953046     0.83900
C210        C  0.97052123  0.76087402  0.32626983     0.90200
O211        O  0.26663432  0.09671692  0.40486098    -0.73600
O212        O  0.20795925  0.97384676  0.39963530    -0.74500
O213        O  0.26481793  0.02654029  0.35730255    -0.63200
O214        O  0.21110417  0.04372503  0.44697591    -0.71600
O215        O  0.15040486  0.07430132  0.42481350    -0.71100
O216        O  0.20595192  0.05933270  0.33454781    -0.62400
O217        O  0.14926077  0.00630293  0.37582667    -0.74900
O218        O  0.20568827  0.12758713  0.38327517    -0.73700
Cu219      Cu  0.23974194  0.03405315  0.40294926     1.04600
Cu220      Cu  0.17571090  0.06782755  0.37882973     1.04300
C221        C  0.24505521  0.13159983  0.39516370     0.92600
C222        C  0.16895798  0.97115801  0.38669323     0.91800
C223        C  0.24480257  0.04113052  0.33170164     0.83900
C224        C  0.17230546  0.06149155  0.45020861     0.90200
C225        C  0.09226597  0.88027611  0.35537604    -0.09800
C226        C  0.08064463  0.85815177  0.38470762     0.06400
C227        C  0.10380243  0.86880227  0.41390826    -0.03500
C228        C  0.13608342  0.90334920  0.41367956    -0.08000
C229        C  0.14496904  0.92782429  0.38473449     0.05500
C230        C  0.12413065  0.91480490  0.35518162    -0.03000
Br231      Br  0.13653726  0.94470794  0.31415698    -0.02700
H232        H  0.07463868  0.87232476  0.33281695     0.09500
H233        H  0.15146181  0.91352302  0.43664474     0.07500
Br234      Br  0.08786695  0.84191771  0.45538541    -0.03100
C235        C  0.24065083  0.04537077  0.27033949    -0.09800
C236        C  0.26674209  0.03774664  0.29860968     0.06400
C237        C  0.31336469  0.02919155  0.29434005    -0.03500
C238        C  0.33233679  0.02873770  0.26266767    -0.08000
C239        C  0.30616909  0.03644925  0.23460898     0.05500
C240        C  0.25977076  0.04495733  0.23873555    -0.03000
Br241      Br  0.22121637  0.06025340  0.20263875    -0.02700
H242        H  0.20507769  0.05250222  0.27274785     0.09500
H243        H  0.36806426  0.02257094  0.25995902     0.07500
Br244      Br  0.35443694  0.02008084  0.33012738    -0.03100
C245        C  0.49151952  0.88081971  0.17755548    -0.09800
C246        C  0.50211140  0.85836452  0.14809984     0.06400
C247        C  0.47546246  0.86668693  0.12005840    -0.03500
C248        C  0.44108956  0.89922488  0.12133156    -0.08000
C249        C  0.43316555  0.92428135  0.15013418     0.05500
C250        C  0.45746872  0.91334511  0.17877972    -0.03000
Br251      Br  0.44665088  0.94333685  0.21994859    -0.02700
H252        H  0.51144256  0.87470491  0.19937523     0.09500
H253        H  0.42317552  0.90762700  0.09899155     0.07500
Br254      Br  0.48889703  0.83977518  0.07825607    -0.03100
C255        C  0.24433316  0.22478748  0.12819248    -0.09800
C256        C  0.27335051  0.26194054  0.13180592     0.06400
C257        C  0.31980572  0.25375609  0.13509525    -0.03500
C258        C  0.33588159  0.20941872  0.13562212    -0.08000
C259        C  0.30683062  0.17201479  0.13296093     0.05500
C260        C  0.26043570  0.18032523  0.12852186    -0.03000
Br261      Br  0.21653435  0.13327920  0.12416157    -0.02700
H262        H  0.20854084  0.23033702  0.12535021     0.09500
H263        H  0.37167966  0.20430291  0.13874777     0.07500
Br264      Br  0.36299125  0.30104541  0.14167150    -0.03100
C265        C  0.80994711  0.68560009  0.11611473    -0.09800
C266        C  0.84525078  0.71121124  0.12929806     0.06400
C267        C  0.83543197  0.75331947  0.14344289    -0.03500
C268        C  0.79095873  0.76887369  0.14428466    -0.08000
C269        C  0.75509934  0.74312125  0.13142899     0.05500
C270        C  0.76540341  0.70096496  0.11687641    -0.03000
Br271      Br  0.72124908  0.66180900  0.09771856    -0.02700
H272        H  0.81706667  0.65292262  0.10537500     0.09500
H273        H  0.78445975  0.80109056  0.15588143     0.07500
Br274      Br  0.88062783  0.78894819  0.16479889    -0.03100
C275        C  0.93579768  0.70947877  0.24515375    -0.09800
C276        C  0.97727865  0.70427698  0.22904125     0.06400
C277        C  0.01678790  0.71920918  0.24471097    -0.03500
C278        C  0.01429754  0.73780017  0.27647468    -0.08000
C279        C  0.97262629  0.74315024  0.29240044     0.05500
C280        C  0.93317816  0.72921529  0.27635060    -0.03000
Br281      Br  0.87504182  0.73462563  0.29667748    -0.02700
H282        H  0.90518242  0.69858895  0.23323167     0.09500
H283        H  0.04483832  0.74819095  0.28871172     0.07500
Br284      Br  0.07483902  0.71296195  0.22444283    -0.03100
C285        C  0.13079974  0.52342814  0.17110045    -0.09800
C286        C  0.15509931  0.51377938  0.14228297     0.06400
C287        C  0.15004513  0.54233588  0.11466457    -0.03500
C288        C  0.11800266  0.57720384  0.11546212    -0.08000
C289        C  0.09072887  0.58379943  0.14340427     0.05500
C290        C  0.09906344  0.55802414  0.17190055    -0.03000
Br291      Br  0.06630405  0.56720384  0.21222934    -0.02700
H292        H  0.13487994  0.50238232  0.19271304     0.09500
H293        H  0.11180687  0.59658838  0.09331874     0.07500
Br294      Br  0.18118377  0.53146759  0.07394220    -0.03100
C295        C  0.75633745  0.73190257  0.40286034    -0.09800
C296        C  0.75080918  0.68673850  0.39325505     0.06400
C297        C  0.78987433  0.66117386  0.38555828    -0.03500
C298        C  0.83230782  0.68167613  0.38601926    -0.08000
C299        C  0.83724768  0.72724113  0.39423075     0.05500
C300        C  0.79879992  0.75205708  0.40365433    -0.03000
Br301      Br  0.80195812  0.81294441  0.41964654    -0.02700
H302        H  0.72743619  0.75201295  0.40970888     0.09500
H303        H  0.86157828  0.66205529  0.37919901     0.07500
Br304      Br  0.78923476  0.59815364  0.37447936    -0.03100
C305        C  0.61047681  0.76223186  0.25986387    -0.09800
C306        C  0.61819566  0.73623410  0.23165729     0.06400
C307        C  0.62475154  0.68929875  0.23516200    -0.03500
C308        C  0.62277160  0.66942062  0.26639375    -0.08000
C309        C  0.61476469  0.69529567  0.29480456     0.05500
C310        C  0.60870101  0.74253432  0.29116316    -0.03000
Br311      Br  0.59989299  0.78352529  0.32728212    -0.02700
H312        H  0.60573695  0.79830992  0.25755825     0.09500
H313        H  0.62825777  0.63343232  0.26841387     0.07500
Br314      Br  0.64020340  0.65075307  0.19880307    -0.03100
C315        C  0.26211952  0.25861970  0.39933485    -0.09800
C316        C  0.30845832  0.26243972  0.39288093     0.06400
C317        C  0.33399281  0.22228891  0.38947201    -0.03500
C318        C  0.31272596  0.18026830  0.39125673    -0.08000
C319        C  0.26627435  0.17672717  0.39646922     0.05500
C320        C  0.24102516  0.21650159  0.40127031    -0.03000
Br321      Br  0.17810795  0.21580231  0.41222681    -0.02700
H322        H  0.24187517  0.28860494  0.40270787     0.09500
H323        H  0.33264398  0.15005353  0.38783015     0.07500
Br324      Br  0.39807295  0.22099951  0.38308681    -0.03100
C325        C  0.33739847  0.41520605  0.26624213    -0.09800
C326        C  0.31051246  0.40260378  0.29318562     0.06400
C327        C  0.26497479  0.39200671  0.28802977    -0.03500
C328        C  0.24742846  0.39331313  0.25629454    -0.08000
C329        C  0.27431529  0.40482501  0.22892224     0.05500
C330        C  0.31981316  0.41688092  0.23433377    -0.03000
Br331      Br  0.36071303  0.43493044  0.19997612    -0.02700
H332        H  0.37240831  0.42366810  0.27003307     0.09500
H333        H  0.21252694  0.38402238  0.25308094     0.07500
Br334      Br  0.22579925  0.37133118  0.32268299    -0.03100
C335        C  0.43549414  0.53737808  0.40755770    -0.09800
C336        C  0.42731681  0.51294631  0.37861963     0.06400
C337        C  0.45010690  0.52501652  0.34945829    -0.03500
C338        C  0.48443619  0.55707960  0.35044899    -0.08000
C339        C  0.49606481  0.57812318  0.38013084     0.05500
C340        C  0.46972683  0.56993166  0.40850614    -0.03000
Br341      Br  0.48342532  0.59704854  0.45014147    -0.02700
H342        H  0.41816792  0.52829455  0.43014848     0.09500
H343        H  0.50391356  0.56366849  0.32833360     0.07500
Br344      Br  0.43707592  0.49668876  0.30807659    -0.03100
C345        C  0.40992946  0.03747132  0.02351617    -0.09800
C346        C  0.41520428  0.06875117  0.04916511     0.06400
C347        C  0.43099396  0.11233584  0.04156758    -0.03500
C348        C  0.44013389  0.12414614  0.00890962    -0.08000
C349        C  0.43374811  0.09350574  0.98287663     0.05500
C350        C  0.41944628  0.04915092  0.99068084    -0.03000
Br351      Br  0.41261649  0.00243955  0.95835370    -0.02700
H352        H  0.39790165  0.00381148  0.02903207     0.09500
H353        H  0.45077814  0.15838363  0.00387667     0.07500
Br354      Br  0.43613251  0.15910405  0.07405903    -0.03100
C355        C  0.63003891  0.84270866  0.98711537    -0.09800
C356        C  0.66187122  0.87687576  0.98176981     0.06400
C357        C  0.68043632  0.89904087  0.00942956    -0.03500
C358        C  0.66914686  0.88475868  0.04125258    -0.08000
C359        C  0.63952954  0.84857767  0.04654842     0.05500
C360        C  0.61872139  0.82841557  0.01887448    -0.03000
Br361      Br  0.57472752  0.78098347  0.02167660    -0.02700
H362        H  0.61489039  0.82561124  0.96636471     0.09500
H363        H  0.68493148  0.90128043  0.06199055     0.07500
Br364      Br  0.72128111  0.94910512  0.00618942    -0.03100
C365        C  0.61440206  0.02226338  0.85128823    -0.09800
C366        C  0.64059021  0.01601220  0.87957931     0.06400
C367        C  0.63493428  0.04577794  0.90638337    -0.03500
C368        C  0.60039951  0.07802730  0.90567969    -0.08000
C369        C  0.57136960  0.08090665  0.87858664     0.05500
C370        C  0.58026451  0.05445625  0.85051981    -0.03000
Br371      Br  0.54579614  0.05993031  0.81081476    -0.02700
H372        H  0.61901282  0.00035653  0.83020481     0.09500
H373        H  0.59402258  0.09833512  0.92735664     0.07500
Br374      Br  0.66912239  0.04012898  0.94607822    -0.03100
C375        C  0.67640428  0.53804964  0.52112341    -0.09800
C376        C  0.66076244  0.56550615  0.54694727     0.06400
C377        C  0.63204787  0.60184855  0.53941393    -0.03500
C378        C  0.62095529  0.61074712  0.50666622    -0.08000
C379        C  0.63828258  0.58468353  0.48053552     0.05500
C380        C  0.66552586  0.54708226  0.48825642    -0.03000
Br381      Br  0.69116464  0.50755381  0.45576906    -0.02700
H382        H  0.69810721  0.50967471  0.52646385     0.09500
H383        H  0.59979756  0.63962740  0.50165223     0.07500
Br384      Br  0.61008553  0.64363206  0.57186841    -0.03100
C385        C  0.41263822  0.37857369  0.53765029    -0.09800
C386        C  0.43775823  0.33896529  0.54244633     0.06400
C387        C  0.45456272  0.31603723  0.51432518    -0.03500
C388        C  0.44316623  0.33100112  0.48281161    -0.08000
C389        C  0.41555473  0.36874339  0.47823430     0.05500
C390        C  0.40172646  0.39369853  0.50606392    -0.03000
Br391      Br  0.36904657  0.44937157  0.50282981    -0.02700
H392        H  0.40049947  0.39765547  0.55860508     0.09500
H393        H  0.45473823  0.31183907  0.46170663     0.07500
Br394      Br  0.49304182  0.26402430  0.51609727    -0.03100
C395        C  0.45233643  0.26468064  0.75839872    -0.09800
C396        C  0.46354271  0.23746948  0.73118354     0.06400
C397        C  0.47342928  0.19129891  0.73692942    -0.03500
C398        C  0.47115277  0.17373646  0.76891477    -0.08000
C399        C  0.45976572  0.20099766  0.79582393     0.05500
C400        C  0.45038892  0.24699325  0.79035894    -0.03000
Br401      Br  0.43108838  0.28663023  0.82503608    -0.02700
H402        H  0.44423559  0.29991284  0.75485815     0.09500
H403        H  0.47840936  0.13837089  0.77280960     0.07500
Br404      Br  0.48882484  0.14895184  0.70289039    -0.03100
C405        C  0.62872314  0.40380667  0.61101054    -0.09800
C406        C  0.64425106  0.42045579  0.64122561     0.06400
C407        C  0.62752965  0.40181866  0.67071763    -0.03500
C408        C  0.59327035  0.36958895  0.66982316    -0.08000
C409        C  0.57552993  0.35519969  0.63972568     0.05500
C410        C  0.59437009  0.37143742  0.61008206    -0.03000
Br411      Br  0.57001512  0.35518791  0.56804217    -0.02700
H412        H  0.64065599  0.41863502  0.58817968     0.09500
H413        H  0.57887330  0.35739847  0.69272883     0.07500
Br414      Br  0.64896009  0.42128393  0.71279725    -0.03100
C415        C  0.81351349  0.76673890  0.87892945    -0.09800
C416        C  0.77043174  0.77151876  0.89247271     0.06400
C417        C  0.74788053  0.73298004  0.90439426    -0.03500
C418        C  0.76855037  0.69069961  0.90260683    -0.08000
C419        C  0.81158336  0.68534773  0.88855452     0.05500
C420        C  0.83399916  0.72436173  0.87638842    -0.03000
Br421      Br  0.89167239  0.72352481  0.85480397    -0.02700
H422        H  0.83076104  0.79604839  0.86913064     0.09500
H423        H  0.75050309  0.66179128  0.91223096     0.07500
Br424      Br  0.68937820  0.73621721  0.92451178    -0.03100
C425        C  0.95359123  0.61455112  0.98061960    -0.09800
C426        C  0.92353415  0.57850286  0.97658361     0.06400
C427        C  0.91124759  0.55285623  0.00452717    -0.03500
C428        C  0.92545762  0.56613929  0.03583424    -0.08000
C429        C  0.95271443  0.60440659  0.04032401     0.05500
C430        C  0.96854757  0.62746297  0.01190641    -0.03000
Br431      Br  0.01068540  0.67658156  0.01322748    -0.02700
H432        H  0.96454336  0.63384896  0.95934389     0.09500
H433        H  0.91408467  0.54671083  0.05691201     0.07500
Br434      Br  0.87654055  0.49833902  0.00173220    -0.03100
C435        C  0.76111251  0.53144236  0.79302296    -0.09800
C436        C  0.80815640  0.53606663  0.79437581     0.06400
C437        C  0.83286142  0.53484999  0.76452550    -0.03500
C438        C  0.81035291  0.53057618  0.73456924    -0.08000
C439        C  0.76324012  0.52844933  0.73313933     0.05500
C440        C  0.73857183  0.52807057  0.76293706    -0.03000
Br441      Br  0.67428196  0.52271417  0.76466816    -0.02700
H442        H  0.74137838  0.53177924  0.81551566     0.09500
H443        H  0.83000977  0.53085264  0.71203156     0.07500
Br444      Br  0.89720836  0.53925651  0.76199219    -0.03100
C445        C  0.27308883  0.26722311  0.90597878    -0.09800
C446        C  0.23637507  0.24123147  0.89565449     0.06400
C447        C  0.24351392  0.19641258  0.88573310    -0.03500
C448        C  0.28684347  0.17847114  0.88618955    -0.08000
C449        C  0.32412032  0.20433689  0.89623931     0.05500
C450        C  0.31662252  0.24935378  0.90656030    -0.03000
Br451      Br  0.36331294  0.28922672  0.92126946    -0.02700
H452        H  0.26785350  0.30182705  0.91362041     0.09500
H453        H  0.29127795  0.14407187  0.87789830     0.07500
Br454      Br  0.19624851  0.15919090  0.86852418    -0.03100
C455        C  0.11738565  0.32352447  0.00863283    -0.09800
C456        C  0.13205073  0.35000831  0.98189584     0.06400
C457        C  0.15980847  0.38782472  0.98823073    -0.03500
C458        C  0.17380964  0.39662021  0.02035438    -0.08000
C459        C  0.16106564  0.36858059  0.04661403     0.05500
C460        C  0.13192570  0.33201245  0.04059912    -0.03000
Br461      Br  0.11445178  0.28906141  0.07380154    -0.02700
H462        H  0.09610405  0.29442485  0.00459302     0.09500
H463        H  0.19576973  0.42514243  0.02471900     0.07500
Br464      Br  0.18238615  0.42804356  0.95484437    -0.03100
C465        C  0.97711591  0.38226489  0.85320945    -0.09800
C466        C  0.98946770  0.36262361  0.88318013     0.06400
C467        C  0.96594414  0.37437771  0.91216098    -0.03500
C468        C  0.93361469  0.40872595  0.91117196    -0.08000
C469        C  0.92479586  0.43156168  0.88162496     0.05500
C470        C  0.94486851  0.41629180  0.85222906    -0.03000
Br471      Br  0.93103702  0.44237269  0.81032560    -0.02700
H472        H  0.99462859  0.37301984  0.83073337     0.09500
H473        H  0.91841312  0.42027125  0.93396223     0.07500
Br474      Br  0.98150200  0.34961462  0.95426562    -0.03100
C475        C  0.29180759  0.25841202  0.62310565    -0.09800
C476        C  0.32839763  0.23174212  0.63278741     0.06400
C477        C  0.32056925  0.18699340  0.64280084    -0.03500
C478        C  0.27675732  0.16999129  0.64322033    -0.08000
C479        C  0.23966880  0.19671782  0.63398224     0.05500
C480        C  0.24785574  0.24151341  0.62343584    -0.03000
Br481      Br  0.20156465  0.28235473  0.60953043    -0.02700
H482        H  0.29744815  0.29291698  0.61531104     0.09500
H483        H  0.27181432  0.13566470  0.65160552     0.07500
Br484      Br  0.36752485  0.14860100  0.65899398    -0.03100
C485        C  0.12657617  0.10718682  0.48893030    -0.09800
C486        C  0.15371956  0.06928659  0.48361741     0.06400
C487        C  0.16479174  0.04166514  0.51072695    -0.03500
C488        C  0.15142427  0.05409362  0.54251662    -0.08000
C489        C  0.12681116  0.09379855  0.54824539     0.05500
C490        C  0.11301195  0.11969621  0.52064161    -0.03000
Br491      Br  0.07675976  0.17327537  0.52337218    -0.02700
H492        H  0.11724680  0.12843566  0.46833877     0.09500
H493        H  0.16153949  0.03298835  0.56296481     0.07500
Br494      Br  0.19716175  0.98599224  0.50614299    -0.03100
C495        C  0.10422104  0.24250099  0.73785981    -0.09800
C496        C  0.10872328  0.19528760  0.73662153     0.06400
C497        C  0.11278422  0.17122467  0.76651252    -0.03500
C498        C  0.11031531  0.19435600  0.79644721    -0.08000
C499        C  0.10542921  0.24143441  0.79753330     0.05500
C500        C  0.10310086  0.26567019  0.76772860    -0.03000
Br501      Br  0.09684398  0.33010231  0.76574800    -0.02700
H502        H  0.10192951  0.26193753  0.71527265     0.09500
H503        H  0.11318652  0.17530952  0.81918240     0.07500
Br504      Br  0.12141286  0.10715239  0.76884852    -0.03100
C505        C  0.76312439  0.75196280  0.64440282    -0.09800
C506        C  0.80841816  0.75630695  0.63557167     0.06400
C507        C  0.83321614  0.71716405  0.62782508    -0.03500
C508        C  0.81244326  0.67476543  0.62909465    -0.08000
C509        C  0.76700013  0.67004846  0.63834687     0.05500
C510        C  0.74235281  0.70970012  0.64621452    -0.03000
Br511      Br  0.68038714  0.71032688  0.65997382    -0.02700
H512        H  0.74391291  0.78174750  0.65082196     0.09500
H513        H  0.83218013  0.64530978  0.62281006     0.07500
Br514      Br  0.89493488  0.71959332  0.61378440    -0.03100
C515        C  0.94094523  0.81747686  0.54364968    -0.09800
C516        C  0.92052456  0.85946359  0.54875183     0.06400
C517        C  0.91336982  0.88791433  0.52146951    -0.03500
C518        C  0.92482224  0.87336928  0.48981657    -0.08000
C519        C  0.94311579  0.83031857  0.48423441     0.05500
C520        C  0.95190305  0.80243664  0.51192858    -0.03000
Br521      Br  0.97622195  0.74252480  0.50912154    -0.02700
H522        H  0.94637235  0.79509019  0.56440861     0.09500
H523        H  0.91843858  0.89589275  0.46931364     0.07500
Br524      Br  0.88870515  0.94734722  0.52572256    -0.03100
C525        C  0.83051117  0.89536187  0.75941739    -0.09800
C526        C  0.80408421  0.89890942  0.73097280     0.06400
C527        C  0.75708461  0.90539794  0.73466786    -0.03500
C528        C  0.73792861  0.90741702  0.76619480    -0.08000
C529        C  0.76448145  0.90348122  0.79445518     0.05500
C530        C  0.81134162  0.89746586  0.79082446    -0.03000
Br531      Br  0.85100841  0.88792433  0.82741511    -0.02700
H532        H  0.86643145  0.89021078  0.75733023     0.09500
H533        H  0.70192936  0.91175228  0.76863895     0.07500
Br534      Br  0.71603241  0.90942256  0.69837103    -0.03100
C535        C  0.95201226  0.01264101  0.67863867    -0.09800
C536        C  0.92608913  0.00731910  0.65010763     0.06400
C537        C  0.92838034  0.04092493  0.62547273    -0.03500
C538        C  0.96109343  0.07501794  0.62759650    -0.08000
C539        C  0.99090879  0.07644275  0.65429638     0.05500
C540        C  0.98378827  0.04701405  0.68105435    -0.03000
Br541      Br  0.01801173  0.05100870  0.72094522    -0.02700
H542        H  0.94920993  0.98844007  0.69856006     0.09500
H543        H  0.96557710  0.09805961  0.60712393     0.07500
Br544      Br  0.89142096  0.03956349  0.58700005    -0.03100
loop_ 
_geom_bond_atom_site_label_1 
_geom_bond_atom_site_label_2 
_geom_bond_distance 
_geom_bond_site_symmetry_2 
_ccdc_geom_bond_type 
O1           Cu9   1.991       .  S
O1           C11   1.274       .  A
O2           Cu9   1.992       .  S
O2           C12   1.277       .  A
O3           Cu9   2.016       .  S
O3           C13   1.281       .  A
O4           Cu9   2.020       .  S
O4           C14   1.280       .  A
O5          Cu10   1.998       .  S
O5           C14   1.276       .  A
O6          Cu10   1.995       .  S
O6           C13   1.274       .  A
O7          Cu10   2.034       .  S
O7           C12   1.280       .  A
O8          Cu10   2.032       .  S
O8           C11   1.282       .  A
Cu9         Cu10   2.370       .  S
C11         C506   1.479       .  S
C12         C536   1.482   1_565  S
C13         C526   1.486       .  S
C14         C516   1.479       .  S
O15         Cu23   2.024       .  S
O15          C25   1.281       .  A
O16         Cu23   2.019       .  S
O16          C26   1.279       .  A
O17         Cu23   1.986       .  S
O17          C27   1.275       .  A
O18         Cu23   1.985       .  S
O18          C28   1.275       .  A
O19         Cu24   2.027       .  S
O19          C28   1.280       .  A
O20         Cu24   2.034       .  S
O20          C27   1.280       .  A
O21         Cu24   1.987       .  S
O21          C26   1.276       .  A
O22         Cu24   1.984       .  S
O22          C25   1.272       .  A
Cu23        Cu24   2.365       .  S
C25         C489   1.489       .  S
C26         C496   1.483       .  S
C27         C539   1.477   1_455  S
C28         C479   1.491       .  S
O29         Cu37   2.000       .  S
O29          C39   1.276       .  A
O30         Cu37   1.998       .  S
O30          C40   1.275       .  A
O31         Cu37   1.993       .  S
O31          C41   1.275       .  A
O32         Cu37   1.992       .  S
O32          C42   1.276       .  A
O33         Cu38   2.018       .  S
O33          C42   1.277       .  A
O34         Cu38   2.011       .  S
O34          C41   1.278       .  A
O35         Cu38   1.991       .  S
O35          C40   1.277       .  A
O36         Cu38   1.999       .  S
O36          C39   1.277       .  A
Cu37        Cu38   2.371       .  S
C39         C499   1.476       .  S
C40         C456   1.482       .  S
C41         C446   1.472       .  S
C42         C466   1.469   1_455  S
O43         Cu51   1.993       .  S
O43          C53   1.276       .  A
O44         Cu51   1.999       .  S
O44          C54   1.274       .  A
O45         Cu51   2.020       .  S
O45          C55   1.279       .  A
O46         Cu51   2.011       .  S
O46          C56   1.277       .  A
O47         Cu52   2.009       .  S
O47          C56   1.278       .  A
O48         Cu52   2.004       .  S
O48          C55   1.277       .  A
O49         Cu52   2.025       .  S
O49          C54   1.281       .  A
O50         Cu52   2.022       .  S
O50          C53   1.278       .  A
Cu51        Cu52   2.367       .  S
C53         C469   1.471       .  S
C54         C419   1.494       .  S
C55         C426   1.485       .  S
C56         C436   1.487       .  S
O57         Cu65   2.017       .  S
O57          C67   1.280       .  A
O58         Cu65   2.020       .  S
O58          C68   1.281       .  A
O59         Cu65   1.995       .  S
O59          C69   1.275       .  A
O60         Cu65   1.994       .  S
O60          C70   1.275       .  A
O61         Cu66   2.020       .  S
O61          C70   1.279       .  A
O62         Cu66   2.023       .  S
O62          C69   1.278       .  A
O63         Cu66   2.003       .  S
O63          C68   1.275       .  A
O64         Cu66   1.994       .  S
O64          C67   1.274       .  A
Cu65        Cu66   2.367       .  S
C67         C386   1.488       .  S
C68         C396   1.492       .  S
C69         C409   1.469       .  S
C70         C476   1.477       .  S
O71         Cu79   1.991       .  S
O71          C81   1.273       .  A
O72         Cu79   1.989       .  S
O72          C82   1.275       .  A
O73         Cu79   2.011       .  S
O73          C83   1.277       .  A
O74         Cu79   2.016       .  S
O74          C84   1.278       .  A
O75         Cu80   1.997       .  S
O75          C84   1.276       .  A
O76         Cu80   2.005       .  S
O76          C83   1.278       .  A
O77         Cu80   2.032       .  S
O77          C82   1.280       .  A
O78         Cu80   2.034       .  S
O78          C81   1.282       .  A
Cu79        Cu80   2.368       .  S
C81         C509   1.494       .  S
C82         C406   1.471       .  S
C83         C439   1.484       .  S
C84         C376   1.482       .  S
O85         Cu93   1.989       .  S
O85          C95   1.274       .  A
O86         Cu93   1.987       .  S
O86          C96   1.275       .  A
O87         Cu93   2.018       .  S
O87          C97   1.280       .  A
O88         Cu93   2.019       .  S
O88          C98   1.281       .  A
O89         Cu94   1.990       .  S
O89          C98   1.274       .  A
O90         Cu94   1.990       .  S
O90          C97   1.274       .  A
O91         Cu94   2.036       .  S
O91          C96   1.280       .  A
O92         Cu94   2.033       .  S
O92          C95   1.282       .  A
Cu93        Cu94   2.370       .  S
C95         C416   1.477       .  S
C96         C366   1.479   1_565  S
C97         C529   1.477       .  S
C98         C356   1.484       .  S
O99        Cu107   2.025       .  S
O99         C109   1.279       .  A
O100       Cu107   2.018       .  S
O100        C110   1.279       .  A
O101       Cu107   1.988       .  S
O101        C111   1.276       .  A
O102       Cu107   1.990       .  S
O102        C112   1.276       .  A
O103       Cu108   2.022       .  S
O103        C112   1.279       .  A
O104       Cu108   2.028       .  S
O104        C111   1.279       .  A
O105       Cu108   2.005       .  S
O105        C110   1.276       .  A
O106       Cu108   2.001       .  S
O106        C109   1.278       .  A
Cu107      Cu108   2.367       .  S
C109        C349   1.493       .  S
C110        C399   1.479       .  S
C111        C369   1.476       .  S
C112        C449   1.490       .  S
O113       Cu121   2.006       .  S
O113        C123   1.277       .  A
O114       Cu121   2.012       .  S
O114        C124   1.279       .  A
O115       Cu121   1.994       .  S
O115        C125   1.274       .  A
O116       Cu121   1.988       .  S
O116        C126   1.276       .  A
O117       Cu122   2.028       .  S
O117        C126   1.279       .  A
O118       Cu122   2.026       .  S
O118        C125   1.281       .  A
O119       Cu122   1.993       .  S
O119        C124   1.275       .  A
O120       Cu122   1.999       .  S
O120        C123   1.276       .  A
Cu121      Cu122   2.371       .  S
C123        C326   1.472       .  S
C124        C389   1.479       .  S
C125        C316   1.490       .  S
C126        C336   1.472       .  S
O127       Cu135   1.989       .  S
O127        C137   1.273       .  A
O128       Cu135   1.992       .  S
O128        C138   1.276       .  A
O129       Cu135   2.022       .  S
O129        C139   1.281       .  A
O130       Cu135   2.027       .  S
O130        C140   1.280       .  A
O131       Cu136   1.984       .  S
O131        C140   1.275       .  A
O132       Cu136   1.993       .  S
O132        C139   1.273       .  A
O133       Cu136   2.029       .  S
O133        C138   1.279       .  A
O134       Cu136   2.029       .  S
O134        C137   1.282       .  A
Cu135      Cu136   2.364       .  S
C137        C296   1.491       .  S
C138        C339   1.474       .  S
C139        C309   1.489       .  S
C140        C379   1.490       .  S
O141       Cu149   1.985       .  S
O141        C151   1.274       .  A
O142       Cu149   1.987   1_455  S
O142        C152   1.275       .  A
O143       Cu149   2.017       .  S
O143        C153   1.279       .  A
O144       Cu149   2.017       .  S
O144        C154   1.280       .  A
O145       Cu150   2.009       .  S
O145        C154   1.276       .  A
O146       Cu150   2.013       .  S
O146        C153   1.277       .  A
O147       Cu150   2.043   1_455  S
O147        C152   1.281       .  A
O148       Cu150   2.045       .  S
O148        C151   1.283       .  A
Cu149      Cu150   2.368       .  S
C151        C266   1.481       .  S
C152        C289   1.479       .  S
C153        C276   1.476       .  S
C154        C429   1.493       .  S
O155       Cu163   2.033       .  S
O155        C165   1.280       .  A
O156       Cu163   2.032       .  S
O156        C166   1.281       .  A
O157       Cu163   1.998       .  S
O157        C167   1.278       .  A
O158       Cu163   2.010       .  S
O158        C168   1.276       .  A
O159       Cu164   1.992       .  S
O159        C168   1.277       .  A
O160       Cu164   1.990       .  S
O160        C167   1.275       .  A
O161       Cu164   2.004       .  S
O161        C166   1.277       .  A
O162       Cu164   1.997       .  S
O162        C165   1.277       .  A
Cu163      Cu164   2.368       .  S
C165        C286   1.481       .  S
C166        C256   1.489       .  S
C167        C459   1.473       .  S
C168        C329   1.486       .  S
O169       Cu177   2.021       .  S
O169        C179   1.280       .  A
O170       Cu177   2.021       .  S
O170        C180   1.280       .  A
O171       Cu177   1.992       .  S
O171        C181   1.276       .  A
O172       Cu177   1.997       .  S
O172        C182   1.276   1_545  A
O173       Cu178   2.048   1_565  S
O173        C182   1.282       .  A
O174       Cu178   2.043       .  S
O174        C181   1.282       .  A
O175       Cu178   2.004       .  S
O175        C180   1.276       .  A
O176       Cu178   2.015       .  S
O176        C179   1.278       .  A
Cu177      Cu178   2.368       .  S
C179        C239   1.485       .  S
C180        C346   1.480       .  S
C181        C259   1.495       .  S
C182        C249   1.484       .  S
O183       Cu191   1.996       .  S
O183        C193   1.275       .  A
O184       Cu191   1.996       .  S
O184        C194   1.276       .  A
O185       Cu191   2.028       .  S
O185        C195   1.282       .  A
O186       Cu191   2.024       .  S
O186        C196   1.281       .  A
O187       Cu192   1.991       .  S
O187        C196   1.274       .  A
O188       Cu192   1.980       .  S
O188        C195   1.272       .  A
O189       Cu192   2.041       .  S
O189        C194   1.282       .  A
O190       Cu192   2.048       .  S
O190        C193   1.283       .  A
Cu191      Cu192   2.365       .  S
C193        C246   1.485       .  S
C194        C269   1.498       .  S
C195        C359   1.486       .  S
C196        C306   1.480       .  S
O197       Cu205   1.987   1_455  S
O197        C207   1.275       .  A
O198       Cu205   1.985       .  S
O198        C208   1.274       .  A
O199       Cu205   2.016       .  S
O199        C209   1.281       .  A
O200       Cu205   2.017       .  S
O200        C210   1.279       .  A
O201       Cu206   2.014       .  S
O201        C210   1.277       .  A
O202       Cu206   2.002       .  S
O202        C209   1.275       .  A
O203       Cu206   2.032       .  S
O203        C208   1.282       .  A
O204       Cu206   2.027   1_455  S
O204        C207   1.279       .  A
Cu205      Cu206   2.370       .  S
C207        C226   1.471       .  S
C208        C299   1.480       .  S
C209        C519   1.491       .  S
C210        C279   1.474       .  S
O211       Cu219   2.025       .  S
O211        C221   1.281       .  A
O212       Cu219   2.025   1_565  S
O212        C222   1.279       .  A
O213       Cu219   2.007       .  S
O213        C223   1.276       .  A
O214       Cu219   1.998       .  S
O214        C224   1.276       .  A
O215       Cu220   2.019       .  S
O215        C224   1.280       .  A
O216       Cu220   2.023       .  S
O216        C223   1.281       .  A
O217       Cu220   1.991       .  S
O217        C222   1.276   1_545  A
O218       Cu220   1.992       .  S
O218        C221   1.274       .  A
Cu219      Cu220   2.369       .  S
C221        C319   1.481       .  S
C222        C229   1.472       .  S
C223        C236   1.494       .  S
C224        C486   1.481       .  S
C225        C226   1.401       .  A
C225        C230   1.395       .  A
C225        H232   1.084       .  S
C226        C227   1.410       .  A
C227        C228   1.404       .  A
C227       Br234   1.920       .  S
C228        C229   1.405       .  A
C228        H233   1.084       .  S
C229        C230   1.408       .  A
C230       Br231   1.920       .  S
C235        C236   1.407       .  A
C235        C240   1.401       .  A
C235        H242   1.083       .  S
C236        C237   1.420       .  A
C237        C238   1.402       .  A
C237       Br244   1.922       .  S
C238        C239   1.402       .  A
C238        H243   1.084       .  S
C239        C240   1.413       .  A
C240       Br241   1.920       .  S
C245        C246   1.404       .  A
C245        C250   1.400       .  A
C245        H252   1.084       .  S
C246        C247   1.412       .  A
C247        C248   1.408       .  A
C247       Br254   1.917       .  S
C248        C249   1.405       .  A
C248        H253   1.083       .  S
C249        C250   1.410       .  A
C250       Br251   1.920       .  S
C255        C256   1.408       .  A
C255        C260   1.404       .  A
C255        H262   1.084       .  S
C256        C257   1.410       .  A
C257        C258   1.400       .  A
C257       Br264   1.921       .  S
C258        C259   1.410       .  A
C258        H263   1.084       .  S
C259        C260   1.415       .  A
C260       Br261   1.919       .  S
C265        C266   1.404       .  A
C265        C270   1.402       .  A
C265        H272   1.084       .  S
C266        C267   1.406       .  A
C267        C268   1.402       .  A
C267       Br274   1.920       .  S
C268        C269   1.414       .  A
C268        H273   1.083       .  S
C269        C270   1.417       .  A
C270       Br271   1.921       .  S
C275        C276   1.403       .  A
C275        C280   1.398       .  A
C275        H282   1.083       .  S
C276        C277   1.411   1_655  A
C277        C278   1.405       .  A
C277       Br284   1.919       .  S
C278        C279   1.405   1_455  A
C278        H283   1.082       .  S
C279        C280   1.407       .  A
C280       Br281   1.920       .  S
C285        C286   1.402       .  A
C285        C290   1.395       .  A
C285        H292   1.084       .  S
C286        C287   1.413       .  A
C287        C288   1.407       .  A
C287       Br294   1.919       .  S
C288        C289   1.406       .  A
C288        H293   1.083       .  S
C289        C290   1.409       .  A
C290       Br291   1.921       .  S
C295        C296   1.405       .  A
C295        C300   1.398       .  A
C295        H302   1.082       .  S
C296        C297   1.422       .  A
C297        C298   1.401       .  A
C297       Br304   1.923       .  S
C298        C299   1.400       .  A
C298        H303   1.083       .  S
C299        C300   1.412       .  A
C300       Br301   1.922       .  S
C305        C306   1.400       .  A
C305        C310   1.399       .  A
C305        H312   1.084       .  S
C306        C307   1.413       .  A
C307        C308   1.399       .  A
C307       Br314   1.923       .  S
C308        C309   1.406       .  A
C308        H313   1.083       .  S
C309        C310   1.421       .  A
C310       Br311   1.923       .  S
C315        C316   1.406       .  A
C315        C320   1.400       .  A
C315        H322   1.083       .  S
C316        C317   1.420       .  A
C317        C318   1.399       .  A
C317       Br324   1.923       .  S
C318        C319   1.401       .  A
C318        H323   1.084       .  S
C319        C320   1.412       .  A
C320       Br321   1.922       .  S
C325        C326   1.402       .  A
C325        C330   1.401       .  A
C325        H332   1.083       .  S
C326        C327   1.407       .  A
C327        C328   1.393       .  A
C327       Br334   1.922       .  S
C328        C329   1.408       .  A
C328        H333   1.083       .  S
C329        C330   1.418       .  A
C330       Br331   1.922       .  S
C335        C336   1.403       .  A
C335        C340   1.404       .  A
C335        H342   1.084       .  S
C336        C337   1.407       .  A
C337        C338   1.396       .  A
C337       Br344   1.921       .  S
C338        C339   1.403       .  A
C338        H343   1.084       .  S
C339        C340   1.411       .  A
C340       Br341   1.918       .  S
C345        C346   1.405       .  A
C345        C350   1.405   1_554  A
C345        H352   1.083       .  S
C346        C347   1.409       .  A
C347        C348   1.397       .  A
C347       Br354   1.922       .  S
C348        C349   1.408   1_554  A
C348        H353   1.083       .  S
C349        C350   1.418       .  A
C350       Br351   1.921       .  S
C355        C356   1.402       .  A
C355        C360   1.397   1_556  A
C355        H362   1.084       .  S
C356        C357   1.416   1_556  A
C357        C358   1.399       .  A
C357       Br364   1.922       .  S
C358        C359   1.404       .  A
C358        H363   1.084       .  S
C359        C360   1.418       .  A
C360       Br361   1.924       .  S
C365        C366   1.403       .  A
C365        C370   1.395       .  A
C365        H372   1.084       .  S
C366        C367   1.412       .  A
C367        C368   1.405       .  A
C367       Br374   1.917       .  S
C368        C369   1.405       .  A
C368        H373   1.083       .  S
C369        C370   1.408       .  A
C370       Br371   1.922       .  S
C375        C376   1.406       .  A
C375        C380   1.400       .  A
C375        H382   1.084       .  S
C376        C377   1.410       .  A
C377        C378   1.397       .  A
C377       Br384   1.923       .  S
C378        C379   1.409       .  A
C378        H383   1.083       .  S
C379        C380   1.415       .  A
C380       Br381   1.921       .  S
C385        C386   1.407       .  A
C385        C390   1.398       .  A
C385        H392   1.083       .  S
C386        C387   1.419       .  A
C387        C388   1.397       .  A
C387       Br394   1.923       .  S
C388        C389   1.402       .  A
C388        H393   1.084       .  S
C389        C390   1.411       .  A
C390       Br391   1.922       .  S
C395        C396   1.408       .  A
C395        C400   1.400       .  A
C395        H402   1.082       .  S
C396        C397   1.420       .  A
C397        C398   1.400       .  A
C397       Br404   1.923       .  S
C398        C399   1.400       .  A
C398        H403   1.083       .  S
C399        C400   1.410       .  A
C400       Br401   1.921       .  S
C405        C406   1.403       .  A
C405        C410   1.402       .  A
C405        H412   1.084       .  S
C406        C407   1.407       .  A
C407        C408   1.397       .  A
C407       Br414   1.916       .  S
C408        C409   1.401       .  A
C408        H413   1.084       .  S
C409        C410   1.409       .  A
C410       Br411   1.920       .  S
C415        C416   1.400       .  A
C415        C420   1.401       .  A
C415        H422   1.083       .  S
C416        C417   1.409       .  A
C417        C418   1.399       .  A
C417       Br424   1.921       .  S
C418        C419   1.408       .  A
C418        H423   1.083       .  S
C419        C420   1.422       .  A
C420       Br421   1.923       .  S
C425        C426   1.404       .  A
C425        C430   1.402   1_556  A
C425        H432   1.084       .  S
C426        C427   1.412   1_556  A
C427        C428   1.399       .  A
C427       Br434   1.922       .  S
C428        C429   1.407       .  A
C428        H433   1.084       .  S
C429        C430   1.419       .  A
C430       Br431   1.922   1_655  S
C435        C436   1.407       .  A
C435        C440   1.400       .  A
C435        H442   1.083       .  S
C436        C437   1.415       .  A
C437        C438   1.397       .  A
C437       Br444   1.921       .  S
C438        C439   1.404       .  A
C438        H443   1.084       .  S
C439        C440   1.412       .  A
C440       Br441   1.920       .  S
C445        C446   1.402       .  A
C445        C450   1.400       .  A
C445        H452   1.084       .  S
C446        C447   1.406       .  A
C447        C448   1.395       .  A
C447       Br454   1.922       .  S
C448        C449   1.410       .  A
C448        H453   1.083       .  S
C449        C450   1.418       .  A
C450       Br451   1.921       .  S
C455        C456   1.407   1_554  A
C455        C460   1.393       .  A
C455        H462   1.083       .  S
C456        C457   1.417       .  A
C457        C458   1.396   1_556  A
C457       Br464   1.923       .  S
C458        C459   1.402       .  A
C458        H463   1.084       .  S
C459        C460   1.410       .  A
C460       Br461   1.923       .  S
C465        C466   1.400       .  A
C465        C470   1.394       .  A
C465        H472   1.084       .  S
C466        C467   1.410       .  A
C467        C468   1.402       .  A
C467       Br474   1.919       .  S
C468        C469   1.403       .  A
C468        H473   1.084       .  S
C469        C470   1.408       .  A
C470       Br471   1.915       .  S
C475        C476   1.404       .  A
C475        C480   1.400       .  A
C475        H482   1.084       .  S
C476        C477   1.407       .  A
C477        C478   1.397       .  A
C477       Br484   1.921       .  S
C478        C479   1.411       .  A
C478        H483   1.083       .  S
C479        C480   1.416       .  A
C480       Br481   1.921       .  S
C485        C486   1.401       .  A
C485        C490   1.398       .  A
C485        H492   1.084       .  S
C486        C487   1.412       .  A
C487        C488   1.399       .  A
C487       Br494   1.921   1_545  S
C488        C489   1.406       .  A
C488        H493   1.083       .  S
C489        C490   1.421       .  A
C490       Br491   1.924       .  S
C495        C496   1.408       .  A
C495        C500   1.395       .  A
C495        H502   1.085       .  S
C496        C497   1.413       .  A
C497        C498   1.398       .  A
C497       Br504   1.920       .  S
C498        C499   1.405       .  A
C498        H503   1.086       .  S
C499        C500   1.409       .  A
C500       Br501   1.922       .  S
C505        C506   1.398       .  A
C505        C510   1.399       .  A
C505        H512   1.084       .  S
C506        C507   1.411       .  A
C507        C508   1.402       .  A
C507       Br514   1.921       .  S
C508        C509   1.408       .  A
C508        H513   1.083       .  S
C509        C510   1.422       .  A
C510       Br511   1.924       .  S
C515        C516   1.401       .  A
C515        C520   1.401       .  A
C515        H522   1.085       .  S
C516        C517   1.409       .  A
C517        C518   1.397       .  A
C517       Br524   1.918       .  S
C518        C519   1.407       .  A
C518        H523   1.084       .  S
C519        C520   1.421       .  A
C520       Br521   1.923       .  S
C525        C526   1.404       .  A
C525        C530   1.396       .  A
C525        H532   1.083       .  S
C526        C527   1.419       .  A
C527        C528   1.400       .  A
C527       Br534   1.922       .  S
C528        C529   1.401       .  A
C528        H533   1.083       .  S
C529        C530   1.413       .  A
C530       Br531   1.923       .  S
C535        C536   1.404       .  A
C535        C540   1.394       .  A
C535        H542   1.084   1_545  S
C536        C537   1.413       .  A
C537        C538   1.406       .  A
C537       Br544   1.915       .  S
C538        C539   1.405       .  A
C538        H543   1.083       .  S
C539        C540   1.408       .  A
C540       Br541   1.921   1_655  S
