geometry optimzed in LAMMPS
_audit_creation_date              2020-12-01 
_audit_creation_method            'lammps2cif' 
_symmetry_space_group_name_H-M    'P1' 
_symmetry_Int_Tables_number       1 
_symmetry_cell_setting            triclinic 
loop_ 
_symmetry_equiv_pos_as_xyz 
  x,y,z 
_cell_length_a                    59.12512479 
_cell_length_b                    59.8333439156875 
_cell_length_c                    59.829064762770905 
_cell_angle_alpha                 90.17525263515942 
_cell_angle_beta                  90.1859218698292 
_cell_angle_gamma                 89.97052795187363 
loop_ 
_atom_site_label 
_atom_site_type_symbol 
_atom_site_fract_x 
_atom_site_fract_y 
_atom_site_fract_z 
_atom_site_charge 
In1        In  0.02984602  0.66341127  0.83505524     1.36900
C2          C  0.99237634  0.65884748  0.85959103     0.78100
O3          O  0.05345917  0.64598326  0.85892545    -0.60300
O4          O  0.05244395  0.68137059  0.85980261    -0.51300
C5          C  0.04866297  0.63672757  0.80450867     0.70800
O6          O  0.03056284  0.63132424  0.81433841    -0.46100
C7          C  0.01875456  0.69629466  0.80700848     0.75500
O8          O  0.00182388  0.64232691  0.85027655    -0.58000
O9          O  0.03649988  0.69676134  0.81881546    -0.48100
O10         O  0.00209864  0.67727987  0.85637154    -0.54400
C11         C  0.06080054  0.66366248  0.86773546     0.85600
O12         O  0.05640316  0.65555588  0.81003955    -0.56300
O13         O  0.00659474  0.67917985  0.80972676    -0.59600
In14       In  0.16225830  0.52733237  0.67899215     1.36900
C15         C  0.15983374  0.48824158  0.65734179     0.78100
O16         O  0.14619713  0.54408181  0.64912831    -0.60300
O17         O  0.18007115  0.55268532  0.65686654    -0.51300
C18         C  0.13386089  0.54841165  0.70656325     0.70800
O19         O  0.13005929  0.52869421  0.69983486    -0.46100
C20         C  0.19400470  0.51804984  0.70938878     0.75500
O21         O  0.14239000  0.49843424  0.66401506    -0.58000
O22         O  0.19805458  0.52935804  0.69202591    -0.48100
O23         O  0.17819005  0.49771994  0.66223122    -0.54400
C24         C  0.16324551  0.55563307  0.64412915     0.85600
O25         O  0.15171431  0.55701361  0.69902137    -0.56300
O26         O  0.17377956  0.51162235  0.71121918    -0.59600
In27       In  0.97717184  0.82641433  0.65993564     1.36900
C28         C  0.01520127  0.85040561  0.65870038     0.78100
O29         O  0.95702823  0.85282881  0.64191913    -0.60300
O30         O  0.95325835  0.85029182  0.67705796    -0.51300
C31         C  0.95807588  0.79723593  0.63173401     0.70800
O32         O  0.97653652  0.80678994  0.62701449    -0.46100
C33         C  0.98677326  0.79864539  0.69348168     0.75500
O34         O  0.00869874  0.83878453  0.64216475    -0.58000
O35         O  0.96846658  0.80942115  0.69232594    -0.48100
O36         O  0.00227609  0.84971327  0.67538895    -0.54400
C37         C  0.94773796  0.86028838  0.65933596     0.85600
O38         O  0.95015300  0.80233393  0.65055240    -0.56300
O39         O  0.00012271  0.80186439  0.67739882    -0.59600
In40       In  0.84335725  0.66830216  0.52777725     1.36900
C41         C  0.84802134  0.64696157  0.48893883     0.78100
O42         O  0.86119482  0.64165495  0.54739728    -0.60300
O43         O  0.82543459  0.64368377  0.54986280    -0.51300
C44         C  0.87104756  0.69669277  0.54819170     0.70800
O45         O  0.87392245  0.69121062  0.52796724    -0.46100
C46         C  0.80999577  0.69740295  0.52127949     0.75500
O47         O  0.86481598  0.65387706  0.49997287    -0.58000
O48         O  0.80704135  0.67946279  0.53195132    -0.48100
O49         O  0.82914788  0.65146573  0.49743969    -0.54400
C50         C  0.84336583  0.63384522  0.55572924     0.85600
O51         O  0.85440432  0.68751198  0.55757901    -0.56300
O52         O  0.82973352  0.70020979  0.51390706    -0.59600
In53       In  0.33488831  0.47479759  0.84779520     1.36900
C54         C  0.35639607  0.51374577  0.84918856     0.78100
O55         O  0.36423937  0.45759905  0.86430129    -0.60300
O56         O  0.35659925  0.44936398  0.83050769    -0.51300
C57         C  0.30865472  0.45194114  0.87508861     0.70800
O58         O  0.31609672  0.47108147  0.88048598    -0.46100
C59         C  0.30327197  0.48366638  0.81738261     0.75500
O60         O  0.35433293  0.50217806  0.83173933    -0.58000
O61         O  0.30079762  0.48817415  0.83784763    -0.48100
O62         O  0.34721750  0.50556472  0.86638634    -0.54400
C63         C  0.36897106  0.44592566  0.84737952     0.85600
O64         O  0.31482228  0.44491252  0.85616309    -0.56300
O65         O  0.32198809  0.47480531  0.81240710    -0.59600
In66       In  0.17895800  0.33674272  0.97560265     1.36900
C67         C  0.15582286  0.33694802  0.01392789     0.78100
O68         O  0.15335286  0.35593065  0.95526778    -0.60300
O69         O  0.15551046  0.32094633  0.95008737    -0.51300
C70         C  0.20906633  0.36470419  0.95821075     0.70800
O71         O  0.19796974  0.36990297  0.97550757    -0.46100
C72         C  0.20732206  0.30338086  0.98438677     0.75500
O73         O  0.16765846  0.35344171  0.00785344    -0.58000
O74         O  0.19532881  0.30388327  0.96689582    -0.48100
O75         O  0.15535840  0.32095902  0.00015890    -0.54400
C76         C  0.14627748  0.33913461  0.94458269     0.85600
O77         O  0.20507676  0.34548269  0.95063730    -0.56300
O78         O  0.20480362  0.31986446  0.99731389    -0.59600
In79       In  0.47709221  0.33058253  0.15841094     1.36900
C80         C  0.51512667  0.35401609  0.15735088     0.78100
O81         O  0.45861443  0.35722223  0.13912195    -0.60300
O82         O  0.45175509  0.35391927  0.17377165    -0.51300
C83         C  0.45912050  0.29972919  0.13175801     0.70800
O84         O  0.47664677  0.31034252  0.12602462    -0.46100
C85         C  0.48647598  0.30347535  0.19246668     0.75500
O86         O  0.50903425  0.34187476  0.14103148    -0.58000
O87         O  0.46806521  0.31408616  0.19109921    -0.48100
O88         O  0.50180029  0.35407833  0.17375826    -0.54400
C89         C  0.44777359  0.36421814  0.15582769     0.85600
O90         O  0.45125116  0.30515011  0.15049290    -0.56300
O91         O  0.50008340  0.30697834  0.17665710    -0.59600
In92       In  0.34893324  0.16726968  0.02942661     1.36900
C93         C  0.35221791  0.14145355  0.99349512     0.78100
O94         O  0.36772263  0.14145923  0.04885558    -0.60300
O95         O  0.33215128  0.14423737  0.05382988    -0.51300
C96         C  0.37733694  0.19543846  0.04896237     0.70800
O97         O  0.38036923  0.18893077  0.02907059    -0.46100
C98         C  0.31514008  0.19509127  0.01960962     0.75500
O99         O  0.36785563  0.15487816  0.99887561    -0.58000
O100        O  0.31538702  0.18336732  0.03707888    -0.48100
O101        O  0.33538860  0.14148944  0.00634076    -0.54400
C102        C  0.35040635  0.13448873  0.05891564     0.85600
O103        O  0.35993574  0.18783734  0.05825865    -0.56300
O104        O  0.33200561  0.19246082  0.00706454    -0.59600
In105      In  0.67288629  0.83714596  0.47604562     1.36900
C106        C  0.64938829  0.83969097  0.51362411     0.78100
O107        O  0.64542847  0.85379855  0.45663202    -0.60300
O108        O  0.65079869  0.81900622  0.45133463    -0.51300
C109        C  0.70114003  0.86384926  0.45459933     0.70800
O110        O  0.69342015  0.86897077  0.47366397    -0.46100
C111        C  0.70266227  0.80632778  0.48760446     0.75500
O112        O  0.65833920  0.85679867  0.50504594    -0.58000
O113        O  0.68544601  0.80179367  0.47590953    -0.48100
O114        O  0.65255210  0.82179563  0.50305248    -0.54400
C115        C  0.63956878  0.83626098  0.44644221     0.85600
O116        O  0.69440152  0.84533115  0.44692806    -0.56300
O117        O  0.70468250  0.82657411  0.49321970    -0.59600
In118      In  0.83072324  0.97161787  0.34417934     1.36900
C119        C  0.85074860  0.01166927  0.34776672     0.78100
O120        O  0.85817699  0.95209353  0.36152292    -0.60300
O121        O  0.85589646  0.94941171  0.32628367    -0.51300
C122        C  0.80163459  0.95035191  0.37081909     0.70800
O123        O  0.80966151  0.96932012  0.37584034    -0.46100
C124        C  0.80176081  0.97992968  0.31120549     0.75500
O125        O  0.84813362  0.00135779  0.32964691    -0.58000
O126        O  0.79899147  0.98692008  0.33092506    -0.48100
O127        O  0.84308422  0.00158271  0.36463940    -0.54400
C128        C  0.86601440  0.94358136  0.34389611     0.85600
O129        O  0.80849765  0.94252973  0.35245323    -0.56300
O130        O  0.81936497  0.96835293  0.30822271    -0.59600
In131      In  0.66669949  0.02980139  0.17045477     1.36900
C132        C  0.66391324  0.99074064  0.14867862     0.78100
O133        O  0.64911844  0.04766962  0.14252594    -0.60300
O134        O  0.68410110  0.05416288  0.14758602    -0.51300
C135        C  0.64040172  0.05237648  0.19872919     0.70800
O136        O  0.63480703  0.03337707  0.19110694    -0.46100
C137        C  0.69850315  0.01978746  0.20005654     0.75500
O138        O  0.64666666  0.00009171  0.15696286    -0.58000
O139        O  0.70298410  0.02981748  0.18203841    -0.48100
O140        O  0.68213165  0.00105529  0.15202896    -0.54400
C141        C  0.66645284  0.05814576  0.13633185     0.85600
O142        O  0.65912407  0.05962974  0.19172142    -0.56300
O143        O  0.67791865  0.01503456  0.20284109    -0.59600
In144      In  0.53200766  0.16295987  0.32833322     1.36900
C145        C  0.49403853  0.16027880  0.35189775     0.78100
O146        O  0.55009843  0.14522547  0.35610279    -0.60300
O147        O  0.55563261  0.18011401  0.35273968    -0.51300
C148        C  0.55338510  0.13588216  0.29963690     0.70800
O149        O  0.53411751  0.13105362  0.30741830    -0.46100
C150        C  0.52061712  0.19597520  0.30051616     0.75500
O151        O  0.50159403  0.14360987  0.34113665    -0.58000
O152        O  0.53860096  0.19624899  0.31197140    -0.48100
O153        O  0.50576435  0.17777345  0.35034075    -0.54400
C154        C  0.55988294  0.16243580  0.36346179     0.85600
O155        O  0.56114931  0.15433627  0.30625132    -0.56300
O156        O  0.50855486  0.17879936  0.30315309    -0.59600
In157      In  0.53036645  0.32626860  0.83675016     1.36900
C158        C  0.49166986  0.34856814  0.84074226     0.78100
O159        O  0.55237306  0.35171211  0.85434282    -0.60300
O160        O  0.55188145  0.35218676  0.81901168    -0.51300
C161        C  0.54790549  0.29550518  0.86397849     0.70800
O162        O  0.52997237  0.30588724  0.86894230    -0.46100
C163        C  0.52101666  0.29805679  0.80340163     0.75500
O164        O  0.50098138  0.33912371  0.85725564    -0.58000
O165        O  0.53953957  0.30847666  0.80471553    -0.48100
O166        O  0.50211638  0.34652935  0.82252288    -0.54400
C167        C  0.55946506  0.36081257  0.83678357     0.85600
O168        O  0.55648324  0.30101505  0.84558773    -0.56300
O169        O  0.50726461  0.30222967  0.81893060    -0.59600
In170      In  0.66299511  0.17091566  0.97179857     1.36900
C171        C  0.66096993  0.15018554  0.01094492     0.78100
O172        O  0.64637582  0.14029101  0.95789340    -0.60300
O173        O  0.67914065  0.14838841  0.94583361    -0.51300
C174        C  0.63428036  0.19662647  0.94929614     0.70800
O175        O  0.63120551  0.19202735  0.96971195    -0.46100
C176        C  0.69454391  0.20132145  0.98156488     0.75500
O177        O  0.64342384  0.15775693  0.00147667    -0.58000
O178        O  0.69941773  0.18256154  0.97302858    -0.48100
O179        O  0.67914408  0.15386800  0.00076345    -0.54400
C180        C  0.66245712  0.13516101  0.94510226     0.85600
O181        O  0.65184211  0.18814309  0.94079810    -0.56300
O182        O  0.67369305  0.20469088  0.98432167    -0.59600
In183      In  0.67833544  0.47259237  0.16631431     1.36900
C184        C  0.65497922  0.51002181  0.16184180     0.78100
O185        O  0.65173226  0.45307642  0.14799810    -0.60300
O186        O  0.65201878  0.45161281  0.18347320    -0.51300
C187        C  0.70765422  0.45349329  0.13877765     0.70800
O188        O  0.70146228  0.47352219  0.13597639    -0.46100
C189        C  0.70625319  0.48002282  0.20070770     0.75500
O190        O  0.66651885  0.50217201  0.14586833    -0.58000
O191        O  0.69560464  0.46193304  0.19827974    -0.48100
O192        O  0.65579744  0.49893303  0.17968480    -0.54400
C193        C  0.64278599  0.44542029  0.16543916     0.85600
O194        O  0.69879084  0.44381804  0.15520223    -0.56300
O195        O  0.70266681  0.49425585  0.18561658    -0.59600
In196      In  0.83259027  0.34100055  0.02904023     1.36900
C197        C  0.85534225  0.34288037  0.99050306     0.78100
O198        O  0.86170235  0.35741705  0.04654212    -0.60300
O199        O  0.85481549  0.32350914  0.05437622    -0.51300
C200        C  0.80614642  0.36961691  0.05057584     0.70800
O201        O  0.81254550  0.37330910  0.03074750    -0.46100
C202        C  0.80107020  0.31007197  0.02108032     0.75500
O203        O  0.84641570  0.36004137  0.99910552    -0.58000
O204        O  0.81951069  0.30564322  0.03080647    -0.48100
O205        O  0.85193575  0.32511756  0.00115883    -0.54400
C206        C  0.86709156  0.34044931  0.05777851     0.85600
O207        O  0.81338621  0.35168906  0.05899658    -0.56300
O208        O  0.79887338  0.33020134  0.01522988    -0.59600
In209      In  0.47609796  0.15435969  0.67088973     1.36900
C210        C  0.51366398  0.15081549  0.64712477     0.78100
O211        O  0.45582033  0.13696689  0.64414970    -0.60300
O212        O  0.45174953  0.17202891  0.64820234    -0.51300
C213        C  0.45603873  0.12861734  0.70099867     0.70800
O214        O  0.47409962  0.12261797  0.69143137    -0.46100
C215        C  0.48811145  0.18743808  0.69806575     0.75500
O216        O  0.50177906  0.16826118  0.64789056    -0.58000
O217        O  0.47071051  0.18827926  0.68584255    -0.48100
O218        O  0.50622623  0.13455704  0.65839935    -0.54400
C219        C  0.44614378  0.15458932  0.63769461     0.85600
O220        O  0.44860653  0.14740441  0.69511999    -0.56300
O221        O  0.49950691  0.16967939  0.69637462    -0.59600
In222      In  0.34191790  0.02582438  0.83017427     1.36900
C223        C  0.34476574  0.98811698  0.85312965     0.78100
O224        O  0.36065245  0.04580923  0.85578162    -0.60300
O225        O  0.32472300  0.04545262  0.85746416    -0.51300
C226        C  0.36903624  0.04669464  0.80173271     0.70800
O227        O  0.37352730  0.02722367  0.80874234    -0.46100
C228        C  0.30911671  0.01754365  0.80110364     0.75500
O229        O  0.36168167  0.99600002  0.84286565    -0.58000
O230        O  0.30932579  0.03492311  0.81315535    -0.48100
O231        O  0.32674366  0.99913197  0.85097117    -0.54400
C232        C  0.34314234  0.05215226  0.86588139     0.85600
O233        O  0.35092614  0.05495171  0.80914226    -0.56300
O234        O  0.32545035  0.00433190  0.80417488    -0.59600
In235      In  0.32723347  0.84395590  0.52695900     1.36900
C236        C  0.34559010  0.84470506  0.48652668     0.78100
O237        O  0.35926005  0.85872034  0.54041572    -0.60300
O238        O  0.34881049  0.82736283  0.55334704    -0.51300
C239        C  0.30259725  0.87446999  0.54770167     0.70800
O240        O  0.30744734  0.87620860  0.52720319    -0.46100
C241        C  0.29617716  0.81259848  0.52036855     0.75500
O242        O  0.33791786  0.86223007  0.49555876    -0.58000
O243        O  0.31595819  0.80809200  0.52688187    -0.48100
O244        O  0.34358066  0.82728317  0.49799761    -0.54400
C245        C  0.36320637  0.84292404  0.55375463     0.85600
O246        O  0.31061138  0.85747744  0.55734156    -0.56300
O247        O  0.29203958  0.83310796  0.51807344    -0.59600
In248      In  0.17171130  0.97871514  0.65863608     1.36900
C249        C  0.14876784  0.01714272  0.65715966     0.78100
O250        O  0.14591069  0.95705606  0.64139598    -0.60300
O251        O  0.14735125  0.95582930  0.67674401    -0.51300
C252        C  0.20146470  0.95990614  0.63110232     0.70800
O253        O  0.18994464  0.97666405  0.62500177    -0.46100
C254        C  0.20210991  0.98729550  0.69027615     0.75500
O255        O  0.15841170  0.00908309  0.64009179    -0.58000
O256        O  0.19008636  0.96985936  0.69022698    -0.48100
O257        O  0.15091543  0.00558963  0.67462332    -0.54400
C258        C  0.13822817  0.94861070  0.65905789     0.85600
O259        O  0.19765751  0.95343289  0.65069659    -0.56300
O260        O  0.19831415  0.00061053  0.67437326    -0.59600
In261      In  0.16101980  0.66977778  0.47829200     1.36900
C262        C  0.15955839  0.64763055  0.51734029     0.78100
O263        O  0.14368232  0.64234049  0.45932472    -0.60300
O264        O  0.17867666  0.64746792  0.45323772    -0.51300
C265        C  0.13230341  0.69720822  0.45771978     0.70800
O266        O  0.12957662  0.69169986  0.47796447    -0.46100
C267        C  0.19217201  0.70089653  0.48524463     0.75500
O268        O  0.17764137  0.65241157  0.50744054    -0.58000
O269        O  0.17204158  0.70286239  0.49182488    -0.48100
O270        O  0.14192596  0.65447561  0.50751586    -0.54400
C271        C  0.16099701  0.63657068  0.44851605     0.85600
O272        O  0.14930090  0.68858524  0.44840069    -0.56300
O273        O  0.19660001  0.68279638  0.47521681    -0.59600
In274      In  0.03371586  0.83018914  0.34419848     1.36900
C275        C  0.99681519  0.85561626  0.34536138     0.78100
O276        O  0.05504977  0.85488976  0.36324988    -0.60300
O277        O  0.05929514  0.85282216  0.32808549    -0.51300
C278        C  0.05020687  0.79870846  0.37125689     0.70800
O279        O  0.03418361  0.81132046  0.37737980    -0.46100
C280        C  0.02209652  0.80333106  0.31054905     0.75500
O281        O  0.00192341  0.84254739  0.36120778    -0.58000
O282        O  0.04125559  0.81259884  0.31167045    -0.48100
O283        O  0.01074089  0.85586821  0.32944588    -0.54400
C284        C  0.06494720  0.86221646  0.34616304     0.85600
O285        O  0.05723753  0.80229416  0.35176909    -0.56300
O286        O  0.00890202  0.80802546  0.32641133    -0.59600
In287      In  0.85020087  0.51871927  0.33595973     1.36900
C288        C  0.85215845  0.48294853  0.36163777     0.78100
O289        O  0.86893762  0.53665632  0.36331968    -0.60300
O290        O  0.83448348  0.54517477  0.35728149    -0.51300
C291        C  0.87617785  0.53904797  0.30626404     0.70800
O292        O  0.88108999  0.51961579  0.31306019    -0.46100
C293        C  0.81596926  0.50789018  0.30930377     0.75500
O294        O  0.86913090  0.48935037  0.35048264    -0.58000
O295        O  0.81560881  0.52475903  0.32199141    -0.48100
O296        O  0.83458496  0.49462476  0.35930277    -0.54400
C297        C  0.85225625  0.54875508  0.36846351     0.85600
O298        O  0.85845563  0.54720135  0.31446996    -0.56300
O299        O  0.83386903  0.49639787  0.31024233    -0.59600
In300      In  0.97218176  0.65930900  0.17962522     1.36900
C301        C  0.00848118  0.65875084  0.15419336     0.78100
O302        O  0.95185061  0.64035161  0.15417981    -0.60300
O303        O  0.94628084  0.67529845  0.15690752    -0.51300
C304        C  0.95601730  0.63020425  0.20850983     0.70800
O305        O  0.97386787  0.62611821  0.19766478    -0.46100
C306        C  0.98345301  0.69196880  0.20783377     0.75500
O307        O  0.00291704  0.64205060  0.16586841    -0.58000
O308        O  0.96414522  0.69076448  0.19881989    -0.48100
O309        O  0.99547451  0.67541418  0.15561759    -0.54400
C310        C  0.94122679  0.65719091  0.14722034     0.85600
O311        O  0.94735964  0.64909030  0.20502520    -0.56300
O312        O  0.99684166  0.67641508  0.20259813    -0.59600
In313      In  0.66012681  0.96957098  0.83156342     1.36900
C314        C  0.65876628  0.00852491  0.85324548     0.78100
O315        O  0.64408264  0.95347121  0.86132903    -0.60300
O316        O  0.67686838  0.94245110  0.85201771    -0.51300
C317        C  0.63126887  0.94911773  0.80447656     0.70800
O318        O  0.62793928  0.96905828  0.81085399    -0.46100
C319        C  0.69201845  0.97737852  0.80132525     0.75500
O320        O  0.64097489  0.99903250  0.84633774    -0.58000
O321        O  0.69643603  0.96948863  0.82040632    -0.48100
O322        O  0.67679427  0.99848080  0.84844683    -0.54400
C323        C  0.66033880  0.94042593  0.86517108     0.85600
O324        O  0.64881558  0.94000245  0.81225419    -0.56300
O325        O  0.67136841  0.98136676  0.79775232    -0.59600
In326      In  0.52679311  0.84012083  0.67174129     1.36900
C327        C  0.48738025  0.84316841  0.65031050     0.78100
O328        O  0.54528040  0.85757963  0.64452653    -0.60300
O329        O  0.55081654  0.82268883  0.64847954    -0.51300
C330        C  0.54824707  0.86622937  0.70059839     0.70800
O331        O  0.52866305  0.87107717  0.69347307    -0.46100
C332        C  0.51913551  0.80811751  0.70086313     0.75500
O333        O  0.49560962  0.82503800  0.65704054    -0.58000
O334        O  0.51326881  0.82817350  0.70407210    -0.48100
O335        O  0.49877066  0.86028020  0.65541761    -0.54400
C336        C  0.55540225  0.84030750  0.63788887     0.85600
O337        O  0.55657112  0.84848798  0.69270553    -0.56300
O338        O  0.52873085  0.80418753  0.68239271    -0.59600
In339      In  0.83134808  0.02462214  0.66367047     1.36900
C340        C  0.85659329  0.98791714  0.66149689     0.78100
O341        O  0.85719897  0.04402328  0.64443543    -0.60300
O342        O  0.85404924  0.05076031  0.67919124    -0.51300
C343        C  0.80190388  0.04508204  0.63741434     0.70800
O344        O  0.81123199  0.02692219  0.63158809    -0.46100
C345        C  0.80208371  0.01232036  0.69517150     0.75500
O346        O  0.84531145  0.99476661  0.64488162    -0.58000
O347        O  0.81840037  0.02545316  0.69910524    -0.48100
O348        O  0.85465734  0.99964348  0.67888678    -0.54400
C349        C  0.86399318  0.05514413  0.66104678     0.85600
O350        O  0.80753394  0.05229721  0.65648668    -0.56300
O351        O  0.80074855  0.00558267  0.67519504    -0.59600
In352      In  0.67539051  0.15629452  0.52834741     1.36900
C353        C  0.65257879  0.15490255  0.48997836     0.78100
O354        O  0.64696132  0.13884018  0.54544126    -0.60300
O355        O  0.65330255  0.17288996  0.55384876    -0.51300
C356        C  0.70246967  0.12861618  0.54985220     0.70800
O357        O  0.69672243  0.12503659  0.52972772    -0.46100
C358        C  0.70602955  0.18757405  0.52082178     0.75500
O359        O  0.66135363  0.13754201  0.49832266    -0.58000
O360        O  0.68719977  0.19191737  0.52972498    -0.48100
O361        O  0.65617903  0.17257647  0.50080151    -0.54400
C362        C  0.64147673  0.15561189  0.55697810     0.85600
O363        O  0.69429093  0.14603212  0.55858148    -0.56300
O364        O  0.70904248  0.16735793  0.51558379    -0.59600
In365      In  0.47718803  0.67343338  0.84202195     1.36900
C366        C  0.51635719  0.65161995  0.84420845     0.78100
O367        O  0.45889065  0.64581147  0.85919080    -0.60300
O368        O  0.45169274  0.65134270  0.82480498    -0.51300
C369        C  0.45571053  0.70008910  0.87055355     0.70800
O370        O  0.47394476  0.69034160  0.87581539    -0.46100
C371        C  0.48645575  0.70196619  0.80950269     0.75500
O372        O  0.51008493  0.66462367  0.85965625    -0.58000
O373        O  0.47491547  0.68454100  0.80623882    -0.48100
O374        O  0.50276613  0.64999166  0.82810963    -0.54400
C375        C  0.44781637  0.64002056  0.84212192     0.85600
O376        O  0.44882376  0.69623686  0.85094500    -0.56300
O377        O  0.49309598  0.70485425  0.82934578    -0.59600
In378      In  0.34349252  0.82964516  0.97597933     1.36900
C379        C  0.34640145  0.85410008  0.01305017     0.78100
O380        O  0.36081105  0.85642155  0.95609447    -0.60300
O381        O  0.32509823  0.85380060  0.95332869    -0.51300
C382        C  0.37070134  0.80043399  0.95589648     0.70800
O383        O  0.37518756  0.80783063  0.97525328    -0.46100
C384        C  0.31116277  0.80056585  0.98658578     0.75500
O385        O  0.36368746  0.84524696  0.00427518    -0.58000
O386        O  0.31012937  0.81270274  0.96935282    -0.48100
O387        O  0.32805075  0.85011471  0.00304962    -0.54400
C388        C  0.34286793  0.86397929  0.94758861     0.85600
O389        O  0.35279141  0.80804162  0.94738885    -0.56300
O390        O  0.32868723  0.80330019  0.99837016    -0.59600
In391      In  0.33128593  0.52735573  0.16109989     1.36900
C392        C  0.35378763  0.48929003  0.15699172     0.78100
O393        O  0.36032826  0.54442252  0.14500468    -0.60300
O394        O  0.35532923  0.54958751  0.17992875    -0.51300
C395        C  0.30493359  0.55176918  0.13509323     0.70800
O396        O  0.30997031  0.53174017  0.13036029    -0.46100
C397        C  0.30044638  0.51663476  0.19111401     0.75500
O398        O  0.35015024  0.49884302  0.17538357    -0.58000
O399        O  0.31764322  0.52823347  0.19592771    -0.48100
O400        O  0.34520296  0.49883911  0.14015687    -0.54400
C401        C  0.36702353  0.55369111  0.16276541     0.85600
O402        O  0.31343218  0.55918029  0.15300221    -0.56300
O403        O  0.29898663  0.51057375  0.17093842    -0.59600
In404      In  0.17145390  0.66401195  0.03521484     1.36900
C405        C  0.14985768  0.65980790  0.99651091     0.78100
O406        O  0.14597283  0.64468317  0.05540047    -0.60300
O407        O  0.14450323  0.68007143  0.05654003    -0.51300
C408        C  0.20320295  0.63896131  0.05412957     0.70800
O409        O  0.19182423  0.63197265  0.03758667    -0.46100
C410        C  0.19876367  0.69813723  0.02570442     0.75500
O411        O  0.16281580  0.64452661  0.00364863    -0.58000
O412        O  0.18865411  0.69663996  0.04422124    -0.48100
O413        O  0.14800663  0.67654698  0.00921391    -0.54400
C414        C  0.13605153  0.66178672  0.06279390     0.85600
O415        O  0.19819217  0.65832865  0.06069096    -0.56300
O416        O  0.19434364  0.68268266  0.01202070    -0.59600
In417      In  0.84734368  0.32484392  0.48302441     1.36900
C418        C  0.85338811  0.34527226  0.52202169     0.78100
O419        O  0.86493487  0.35202238  0.46461423    -0.60300
O420        O  0.82908378  0.34980765  0.46168515    -0.51300
C421        C  0.87157671  0.29675455  0.45867553     0.70800
O422        O  0.87728964  0.30202952  0.47840258    -0.46100
C423        C  0.81476435  0.29627182  0.49259114     0.75500
O424        O  0.86981905  0.33650968  0.51176384    -0.58000
O425        O  0.81101072  0.31402239  0.48182247    -0.48100
O426        O  0.83455655  0.34330262  0.51244372    -0.54400
C427        C  0.84702292  0.35983324  0.45627213     0.85600
O428        O  0.85379197  0.30601418  0.45158032    -0.56300
O429        O  0.83501857  0.29332224  0.49854486    -0.59600
In430      In  0.97499887  0.16946129  0.34305742     1.36900
C431        C  0.01512512  0.14942295  0.34736562     0.78100
O432        O  0.95744637  0.14050535  0.35904246    -0.60300
O433        O  0.94923090  0.14764020  0.32530136    -0.51300
C434        C  0.95266834  0.19600535  0.37072824     0.70800
O435        O  0.97170121  0.18776061  0.37581236    -0.46100
C436        C  0.98422378  0.19929743  0.31150490     0.75500
O437        O  0.00509655  0.15795292  0.36391243    -0.58000
O438        O  0.97571355  0.18041773  0.30714083    -0.48100
O439        O  0.00486212  0.15150284  0.32906420    -0.54400
C440        C  0.94563807  0.13562078  0.34221144     0.85600
O441        O  0.94533019  0.19075072  0.35161544    -0.56300
O442        O  0.98800994  0.20291340  0.33195958    -0.59600
In443      In  0.16139084  0.47570349  0.32969280     1.36900
C444        C  0.15928756  0.51457486  0.35126973     0.78100
O445        O  0.14380968  0.45746740  0.35717839    -0.60300
O446        O  0.17902540  0.45171189  0.35293726    -0.51300
C447        C  0.13524271  0.45305873  0.30164715     0.70800
O448        O  0.12855759  0.47098795  0.31083878    -0.46100
C449        C  0.19273870  0.48596507  0.30002533     0.75500
O450        O  0.14243338  0.50703224  0.34057759    -0.58000
O451        O  0.19731402  0.47573580  0.31791905    -0.48100
O452        O  0.17659167  0.50240107  0.35062049    -0.54400
C453        C  0.16135123  0.44762371  0.36398184     0.85600
O454        O  0.15487736  0.44682006  0.30714592    -0.56300
O455        O  0.17221025  0.49107975  0.29740865    -0.59600
In456      In  0.03305372  0.33601848  0.17350896     1.36900
C457        C  0.99387785  0.33893613  0.15130113     0.78100
O458        O  0.05348780  0.35285914  0.14677802    -0.60300
O459        O  0.05716945  0.31778793  0.15036070    -0.51300
C460        C  0.05422843  0.36335498  0.20154566     0.70800
O461        O  0.03434082  0.36735999  0.19472073    -0.46100
C462        C  0.02353437  0.30544530  0.20426722     0.75500
O463        O  0.00386705  0.35607951  0.15874746    -0.58000
O464        O  0.03406187  0.30064141  0.18653385    -0.48100
O465        O  0.00373298  0.32080932  0.15548647    -0.54400
C466        C  0.06308181  0.33525471  0.14012630     0.85600
O467        O  0.06297669  0.34567762  0.19389643    -0.56300
O468        O  0.01804420  0.32571472  0.20619515    -0.59600
In469      In  0.83024493  0.65612650  0.98001284     1.36900
C470        C  0.85112144  0.65435415  0.01933925     0.78100
O471        O  0.86008302  0.63839416  0.96469350    -0.60300
O472        O  0.85267239  0.67141669  0.95393400    -0.51300
C473        C  0.80327647  0.62905975  0.95721589     0.70800
O474        O  0.80973511  0.62426894  0.97683170    -0.46100
C475        C  0.80014627  0.68812795  0.98915903     0.75500
O476        O  0.84990625  0.67177381  0.00766306    -0.58000
O477        O  0.81864307  0.69218537  0.97945078    -0.48100
O478        O  0.84154457  0.63738297  0.01096179    -0.54400
C479        C  0.86522248  0.65442307  0.95206427     0.85600
O480        O  0.81052849  0.64740193  0.94979181    -0.56300
O481        O  0.79710974  0.66784331  0.99402418    -0.59600
In482      In  0.67435219  0.52655287  0.84126588     1.36900
C483        C  0.65086080  0.48857406  0.84329672     0.78100
O484        O  0.64888663  0.54764395  0.85974031    -0.60300
O485        O  0.64885759  0.54840895  0.82425299    -0.51300
C486        C  0.70421126  0.54526882  0.86882464     0.70800
O487        O  0.69525400  0.52658364  0.87319286    -0.46100
C488        C  0.70247161  0.51776446  0.80775711     0.75500
O489        O  0.66222587  0.49567945  0.85983751    -0.58000
O490        O  0.69179428  0.53598054  0.80909096    -0.48100
O491        O  0.65149228  0.50092518  0.82630175    -0.54400
C492        C  0.64025297  0.55551990  0.84217844     0.85600
O493        O  0.69811198  0.55379332  0.85057941    -0.56300
O494        O  0.69886871  0.50431219  0.82351053    -0.59600
In495      In  0.66019064  0.82800114  0.02962698     1.36900
C496        C  0.65601465  0.84658266  0.98912711     0.78100
O497        O  0.64409492  0.85786991  0.04601781    -0.60300
O498        O  0.67834847  0.85114877  0.05396851    -0.51300
C499        C  0.63163817  0.80114406  0.05075971     0.70800
O500        O  0.62899683  0.80601755  0.03035160    -0.46100
C501        C  0.69295257  0.79809105  0.02324904     0.75500
O502        O  0.63915721  0.84283016  0.00142668    -0.58000
O503        O  0.69704552  0.81789094  0.02952294    -0.48100
O504        O  0.67454205  0.84014915  0.99714523    -0.54400
C505        C  0.66134285  0.86354466  0.05702643     0.85600
O506        O  0.64851515  0.81014181  0.06006350    -0.56300
O507        O  0.67227630  0.79363051  0.02064547    -0.59600
In508      In  0.53243503  0.66869883  0.16303273     1.36900
C509        C  0.49481229  0.64464153  0.16063598     0.78100
O510        O  0.55368975  0.64345725  0.14467316    -0.60300
O511        O  0.55662188  0.64552122  0.17998858    -0.51300
C512        C  0.54952513  0.69953441  0.13605729     0.70800
O513        O  0.53178644  0.68896990  0.13075396    -0.46100
C514        C  0.52311073  0.69531332  0.19725894     0.75500
O515        O  0.50218841  0.65540337  0.14403252    -0.58000
O516        O  0.54129840  0.68433147  0.19615026    -0.48100
O517        O  0.50667184  0.64616375  0.17807741    -0.54400
C518        C  0.56286591  0.63612216  0.16218393     0.85600
O519        O  0.55780482  0.69433933  0.15471615    -0.56300
O520        O  0.50983052  0.69270064  0.18091345    -0.59600
In521      In  0.47275692  0.83293383  0.33311704     1.36900
C522        C  0.50949411  0.83400150  0.35856161     0.78100
O523        O  0.45078043  0.85176873  0.35712712    -0.60300
O524        O  0.44720446  0.81648962  0.35548226    -0.51300
C525        C  0.45617450  0.86037101  0.30224853     0.70800
O526        O  0.47378928  0.86538666  0.31322780    -0.46100
C527        C  0.48388849  0.80000483  0.30567805     0.75500
O528        O  0.49753753  0.81673301  0.35617073    -0.58000
O529        O  0.46546898  0.80023036  0.31631651    -0.48100
O530        O  0.50240963  0.85108386  0.34830017    -0.54400
C531        C  0.44072262  0.83464800  0.36412064     0.85600
O532        O  0.44785827  0.84159697  0.30688188    -0.56300
O533        O  0.49664011  0.81656186  0.30911773    -0.59600
In534      In  0.34919837  0.97322537  0.17536599     1.36900
C535        C  0.35234348  0.01243999  0.15491502     0.78100
O536        O  0.36587953  0.95794110  0.14529081    -0.60300
O537        O  0.33187426  0.94881127  0.15194315    -0.51300
C538        C  0.37693457  0.95031055  0.20157498     0.70800
O539        O  0.38095337  0.97042059  0.19636217    -0.46100
C540        C  0.31746312  0.98255217  0.20588536     0.75500
O541        O  0.36972955  0.00226175  0.16181882    -0.58000
O542        O  0.31275132  0.97408745  0.18704090    -0.48100
O543        O  0.33390984  0.00300405  0.15929059    -0.54400
C544        C  0.34890282  0.94664887  0.13938988     0.85600
O545        O  0.35907480  0.94221910  0.19324504    -0.56300
O546        O  0.33829586  0.98586978  0.20916693    -0.59600
In547      In  0.33212720  0.16809582  0.47312162     1.36900
C548        C  0.35305048  0.16357049  0.51225158     0.78100
O549        O  0.35990599  0.15028695  0.45460058    -0.60300
O550        O  0.35676970  0.18521098  0.44971974    -0.51300
C551        C  0.30380231  0.14109199  0.45220095     0.70800
O552        O  0.31108047  0.13680804  0.47161658    -0.46100
C553        C  0.30124531  0.19968172  0.48117206     0.75500
O554        O  0.35035741  0.18206473  0.50266660    -0.58000
O555        O  0.29867836  0.17957692  0.48681383    -0.48100
O556        O  0.34454294  0.14708853  0.50210052    -0.54400
C557        C  0.36737927  0.16746897  0.44507653     0.85600
O558        O  0.31136519  0.15881684  0.44360045    -0.56300
O559        O  0.31984232  0.20387076  0.47169173    -0.59600
In560      In  0.17705471  0.02879630  0.34412721     1.36900
C561        C  0.15640482  0.98924071  0.34671276     0.78100
O562        O  0.14836882  0.04614182  0.36184796    -0.60300
O563        O  0.15381547  0.05373388  0.32769005    -0.51300
C564        C  0.20392977  0.05120422  0.37156923     0.70800
O565        O  0.19567181  0.03249621  0.37706558    -0.46100
C566        C  0.20735530  0.02066652  0.31195996     0.75500
O567        O  0.16683601  0.99748545  0.36324406    -0.58000
O568        O  0.18847956  0.02978230  0.30802147    -0.48100
O569        O  0.15698518  0.00097683  0.32932974    -0.54400
C570        C  0.14229735  0.05728855  0.34506650     0.85600
O571        O  0.19849497  0.05797609  0.35235559    -0.56300
O572        O  0.21061900  0.01568897  0.33219213    -0.59600
In573      In  0.84517402  0.47256166  0.67421184     1.36900
C574        C  0.84705168  0.50842031  0.64810274     0.78100
O575        O  0.86580115  0.45153794  0.65066733    -0.60300
O576        O  0.83055329  0.44510012  0.65346887    -0.51300
C577        C  0.87093372  0.45580931  0.70633401     0.70800
O578        O  0.87772008  0.47174544  0.69424169    -0.46100
C579        C  0.81088397  0.48385605  0.70021477     0.75500
O580        O  0.86297413  0.50331641  0.66130006    -0.58000
O581        O  0.81016229  0.46700699  0.68746398    -0.48100
O582        O  0.83051199  0.49515434  0.64820051    -0.54400
C583        C  0.84914906  0.43989235  0.64456729     0.85600
O584        O  0.85127058  0.44898105  0.70204302    -0.56300
O585        O  0.82888544  0.49515530  0.69925495    -0.59600
In586      In  0.97905925  0.34278920  0.83130540     1.36900
C587        C  0.02019178  0.34362742  0.85052740     0.78100
O588        O  0.96245926  0.35990782  0.86044634    -0.60300
O589        O  0.95504477  0.32560799  0.85501654    -0.51300
C590        C  0.95748825  0.37239140  0.80592352     0.70800
O591        O  0.97858234  0.37364583  0.80941175    -0.46100
C592        C  0.98292137  0.31116962  0.80015651     0.75500
O593        O  0.01007141  0.36124753  0.84464217    -0.58000
O594        O  0.97411063  0.30744275  0.81898655    -0.48100
O595        O  0.00952802  0.32595461  0.84623330    -0.54400
C596        C  0.95152184  0.34293988  0.86658566     0.85600
O597        O  0.94778550  0.35626314  0.81539530    -0.56300
O598        O  0.98952926  0.33097314  0.79727307    -0.59600
In599      In  0.02478386  0.17609444  0.65801989     1.36900
C600        C  0.98609494  0.15364946  0.65579014     0.78100
O601        O  0.04227748  0.14774920  0.64047988    -0.60300
O602        O  0.05128657  0.15441987  0.67426848    -0.51300
C603        C  0.04633086  0.20475872  0.63214122     0.70800
O604        O  0.02728065  0.19671705  0.62667338    -0.46100
C605        C  0.01344305  0.20521639  0.68959106     0.75500
O606        O  0.99416402  0.16313906  0.63871572    -0.58000
O607        O  0.02433242  0.18756238  0.69392599    -0.48100
O608        O  0.99762177  0.15602063  0.67333721    -0.54400
C609        C  0.05431816  0.14248973  0.65708303     0.85600
O610        O  0.05421698  0.19789626  0.65049573    -0.56300
O611        O  0.00841987  0.20787067  0.66926493    -0.59600
In612      In  0.15820377  0.33426051  0.52837976     1.36900
C613        C  0.15576295  0.35866612  0.49156495     0.78100
O614        O  0.14094414  0.36185233  0.54721840    -0.60300
O615        O  0.17532656  0.35499260  0.55510384    -0.51300
C616        C  0.13152659  0.30614195  0.54961698     0.70800
O617        O  0.12580807  0.31437618  0.53095071    -0.46100
C618        C  0.18915670  0.30454695  0.51552730     0.75500
O619        O  0.17367600  0.35588141  0.50259254    -0.58000
O620        O  0.19395865  0.32134672  0.52749469    -0.48100
O621        O  0.13857081  0.34873679  0.49921544    -0.54400
C622        C  0.15797914  0.36671032  0.55898879     0.85600
O623        O  0.15057946  0.31228024  0.55691812    -0.56300
O624        O  0.16855813  0.30294900  0.51014246    -0.59600
C625        C  0.08413348  0.24305801  0.60905541     0.30300
C626        C  0.10396856  0.25574796  0.60818000    -0.36100
C627        C  0.10675730  0.26879019  0.58903858     0.16300
C628        C  0.09112636  0.26950185  0.57185863     0.22100
C629        C  0.07114062  0.25681939  0.57278906    -0.34200
C630        C  0.06836155  0.24362542  0.59198942     0.16200
O631        O  0.07839405  0.22940936  0.62527052    -0.26200
C632        C  0.05867884  0.22104535  0.61858598     0.06000
C633        C  0.05151626  0.22929063  0.59802240    -0.31100
O634        O  0.09751205  0.28281251  0.55543886    -0.22900
C635        C  0.11745887  0.29057300  0.56235698    -0.02900
C636        C  0.12398529  0.28241180  0.58308799    -0.17300
H637        H  0.11647181  0.25533003  0.62142962     0.20700
H638        H  0.05874726  0.25707282  0.55944269     0.19000
H639        H  0.03625643  0.22519828  0.58885384     0.19000
H640        H  0.13931068  0.28597549  0.59238683     0.14800
C641        C  0.99287202  0.27942818  0.75191945     0.30300
C642        C  0.99850412  0.27585012  0.72944800    -0.36100
C643        C  0.00075238  0.25349142  0.72279358     0.16300
C644        C  0.99804849  0.23580189  0.73729912     0.22100
C645        C  0.99190726  0.23937161  0.75971159    -0.34200
C646        C  0.98934712  0.26179126  0.76631557     0.16200
O647        O  0.99084903  0.29901557  0.76184910    -0.26200
C648        C  0.98565301  0.29392803  0.78283472     0.06000
C649        C  0.98432532  0.27102192  0.78659283    -0.31100
O650        O  0.00223710  0.21632451  0.72769336    -0.22900
C651        C  0.00728091  0.22170594  0.70671516    -0.02900
C652        C  0.00643932  0.24452988  0.70267087    -0.17300
H653        H  0.00128365  0.28955554  0.71803231     0.20700
H654        H  0.98965144  0.22567980  0.77125904     0.19000
H655        H  0.98093363  0.26247910  0.80214184     0.19000
H656        H  0.01015679  0.25324239  0.68728972     0.14800
C657        C  0.91239602  0.43380272  0.74207034     0.30300
C658        C  0.93434169  0.42878455  0.74968989    -0.36100
C659        C  0.93584659  0.41291675  0.76692504     0.16300
C660        C  0.91703108  0.40276350  0.77596881     0.22100
C661        C  0.89516952  0.40788589  0.76851213    -0.34200
C662        C  0.89370192  0.42360354  0.75130266     0.16200
O663        O  0.90699730  0.44719863  0.72534414    -0.26200
C664        C  0.88459754  0.44538737  0.72393820     0.06000
C665        C  0.87546100  0.43098346  0.73966540    -0.31100
O666        O  0.92225605  0.38761100  0.79102581    -0.22900
C667        C  0.94472185  0.38805855  0.79183471    -0.02900
C668        C  0.95416978  0.40354678  0.77726906    -0.17300
H669        H  0.94919367  0.43627816  0.74232908     0.20700
H670        H  0.88036705  0.39971112  0.77523665     0.19000
H671        H  0.85795542  0.42613112  0.74172706     0.19000
H672        H  0.97188663  0.40681463  0.77420537     0.14800
C673        C  0.23774508  0.27392846  0.50134603     0.30300
C674        C  0.26097984  0.27024985  0.49816482    -0.36100
C675        C  0.26734320  0.24835224  0.49250583     0.16300
C676        C  0.25194587  0.23113589  0.49047983     0.22100
C677        C  0.22861940  0.23492708  0.49310245    -0.34200
C678        C  0.22222587  0.25693421  0.49843959     0.16200
O679        O  0.22823161  0.29288401  0.50765880    -0.26200
C680        C  0.20627353  0.28810291  0.50847395     0.06000
C681        C  0.20149711  0.26603611  0.50270052    -0.31100
O682        O  0.26178307  0.21174005  0.48631641    -0.22900
C683        C  0.28372317  0.21670149  0.48525247    -0.02900
C684        C  0.28816293  0.23924690  0.48881015    -0.17300
H685        H  0.27327963  0.28346786  0.50030382     0.20700
H686        H  0.21636348  0.22159880  0.49144991     0.19000
H687        H  0.18522284  0.25776522  0.50244519     0.19000
H688        H  0.30441358  0.24754872  0.48925379     0.14800
C689        C  0.23998094  0.09091986  0.39504264     0.30300
C690        C  0.25278683  0.11053098  0.39496801    -0.36100
C691        C  0.26538653  0.11477483  0.41427666     0.16300
C692        C  0.26544956  0.10078320  0.43257147     0.22100
C693        C  0.25243446  0.08107516  0.43270953    -0.34200
C694        C  0.23978326  0.07674179  0.41320389     0.16200
O695        O  0.22739107  0.08371069  0.37842162    -0.26200
C696        C  0.21890361  0.06460586  0.38582719     0.06000
C697        C  0.22593686  0.05931513  0.40743086    -0.31100
O698        O  0.27898311  0.10806369  0.44864777    -0.22900
C699        C  0.28756336  0.12686027  0.44031747    -0.02900
C700        C  0.27963792  0.13184905  0.41907784    -0.17300
H701        H  0.25308983  0.12159907  0.38071383     0.20700
H702        H  0.25237157  0.06985584  0.44684671     0.19000
H703        H  0.22164826  0.04478294  0.41726163     0.19000
H704        H  0.28392985  0.14594736  0.40862928     0.14800
C705        C  0.25548139  0.00793085  0.27999672     0.30300
C706        C  0.27836257  0.00279397  0.27634306    -0.36100
C707        C  0.28443619  0.99760342  0.25425512     0.16300
C708        C  0.26900213  0.99721971  0.23689804     0.22100
C709        C  0.24613252  0.00270817  0.24050248    -0.34200
C710        C  0.24009509  0.00818314  0.26259295     0.16200
O711        O  0.24606694  0.01249954  0.29946736    -0.26200
C712        C  0.22438357  0.01603182  0.29454505     0.06000
C713        C  0.21970378  0.01377107  0.27180723    -0.31100
O714        O  0.27836731  0.99151032  0.21763608    -0.22900
C715        C  0.30013036  0.98843688  0.22268566    -0.02900
C716        C  0.30484897  0.99208878  0.24521339    -0.17300
H717        H  0.29059723  0.00269562  0.28986723     0.20700
H718        H  0.23385454  0.00261103  0.22701853     0.19000
H719        H  0.20350424  0.01525825  0.26344202     0.19000
H720        H  0.32100708  0.99079817  0.25369311     0.14800
C721        C  0.43661424  0.90233268  0.26571887     0.30300
C722        C  0.43526435  0.92343962  0.25535768    -0.36100
C723        C  0.41726687  0.92638175  0.24011080     0.16300
C724        C  0.40180734  0.90969306  0.23550870     0.22100
C725        C  0.40315757  0.88878432  0.24576659    -0.34200
C726        C  0.42098807  0.88588802  0.26085836     0.16200
O727        O  0.45164997  0.89575432  0.28083527    -0.26200
C728        C  0.44536041  0.87486380  0.28548781     0.06000
C729        C  0.42643951  0.86798592  0.27354609    -0.31100
O730        O  0.38606486  0.91592616  0.22126031    -0.22900
C731        C  0.39133241  0.93693882  0.21649003    -0.02900
C732        C  0.41063779  0.94443148  0.22767519    -0.17300
H733        H  0.44720726  0.93664260  0.25905070     0.20700
H734        H  0.39097825  0.87571345  0.24237022     0.19000
H735        H  0.41773824  0.85210084  0.27436571     0.19000
H736        H  0.41834018  0.96081660  0.22704241     0.14800
C737        C  0.50909934  0.75995243  0.27103730     0.30300
C738        C  0.52678225  0.74755430  0.26141065    -0.36100
C739        C  0.52055009  0.73286175  0.24410570     0.16300
C740        C  0.49852004  0.73086250  0.23662393     0.22100
C741        C  0.48085866  0.74288743  0.24651766    -0.34200
C742        C  0.48700234  0.75722329  0.26401394     0.16200
O743        O  0.51104853  0.77532656  0.28678565    -0.26200
C744        C  0.48986280  0.78207852  0.29010285     0.06000
C745        C  0.47419373  0.77131560  0.27654630    -0.31100
O746        O  0.49658792  0.71724733  0.21942292    -0.22900
C747        C  0.51756782  0.71014811  0.21596035    -0.02900
C748        C  0.53323503  0.71911085  0.23090857    -0.17300
H749        H  0.54417046  0.74948479  0.26677991     0.20700
H750        H  0.46355899  0.74140722  0.24074234     0.19000
H751        H  0.45613559  0.77413028  0.27550513     0.19000
H752        H  0.55134986  0.71651889  0.23139894     0.14800
C753        C  0.60502717  0.76691746  0.08978864     0.30300
C754        C  0.60258195  0.75679551  0.11062359    -0.36100
C755        C  0.58482836  0.74157643  0.11251546     0.16300
C756        C  0.57022535  0.73646393  0.09520097     0.22100
C757        C  0.57265783  0.74671994  0.07414882    -0.34200
C758        C  0.59063147  0.76208584  0.07220585     0.16200
O759        O  0.62090907  0.78128447  0.08447830    -0.26200
C760        C  0.61682711  0.78591965  0.06317031     0.06000
C761        C  0.59817378  0.77448927  0.05453408    -0.31100
O762        O  0.55516337  0.72110912  0.10094377    -0.22900
C763        C  0.56046769  0.71657064  0.12215335    -0.02900
C764        C  0.57869892  0.72883776  0.13007428    -0.17300
H765        H  0.61395791  0.76035125  0.12439014     0.20700
H766        H  0.56156353  0.74282516  0.06025657     0.19000
H767        H  0.59141676  0.77502697  0.03771387     0.19000
H768        H  0.58660067  0.72812612  0.14640739     0.14800
C769        C  0.76656028  0.48606511  0.73875242     0.30300
C770        C  0.75071783  0.47751640  0.75388852    -0.36100
C771        C  0.73887617  0.49339349  0.76657732     0.16300
C772        C  0.74204715  0.51613103  0.76429416     0.22100
C773        C  0.75812451  0.52466445  0.74937144    -0.34200
C774        C  0.77026995  0.50876910  0.73697102     0.16200
O775        O  0.77987085  0.47425227  0.72557152    -0.26200
C776        C  0.79245730  0.48961388  0.71548982     0.06000
C777        C  0.78735550  0.51133429  0.72200925    -0.31100
O778        O  0.72923061  0.52790280  0.77801643    -0.22900
C779        C  0.71799859  0.51243443  0.78942159    -0.02900
C780        C  0.72334598  0.49071673  0.78306304    -0.17300
H781        H  0.74806547  0.45975238  0.75588473     0.20700
H782        H  0.76120955  0.54240375  0.74780449     0.19000
H783        H  0.79521898  0.52670990  0.71659355     0.19000
H784        H  0.71686411  0.47523819  0.78980156     0.14800
C785        C  0.72564789  0.75031179  0.01293389     0.30300
C786        C  0.72976791  0.72734586  0.01045744    -0.36100
C787        C  0.75177387  0.72133168  0.00415068     0.16300
C788        C  0.76856634  0.73681669  0.00018873     0.22100
C789        C  0.76448462  0.75984984  0.00286516    -0.34200
C790        C  0.74251095  0.76586888  0.00954739     0.16200
O791        O  0.70617900  0.75956792  0.01838833    -0.26200
C792        C  0.71063810  0.78135392  0.01886890     0.06000
C793        C  0.73299956  0.78629913  0.01360139    -0.31100
O794        O  0.78784430  0.72735684  0.99414665    -0.22900
C795        C  0.78331996  0.70553621  0.99448301    -0.02900
C796        C  0.76117615  0.70085136  0.00065966    -0.17300
H797        H  0.71671376  0.71501586  0.01326044     0.20700
H798        H  0.77751397  0.77218928  0.99999223     0.19000
H799        H  0.74086655  0.80257042  0.01233099     0.19000
H800        H  0.75316736  0.68467579  0.00223503     0.14800
C801        C  0.76701022  0.58901484  0.93316083     0.30300
C802        C  0.75369091  0.56954552  0.93169986    -0.36100
C803        C  0.74153413  0.56659702  0.91162369     0.16300
C804        C  0.74245280  0.58181414  0.89435345     0.22100
C805        C  0.75572473  0.60110180  0.89577386    -0.34200
C806        C  0.76782828  0.60397306  0.91567063     0.16200
O807        O  0.77953043  0.59552473  0.95037951    -0.26200
C808        C  0.78835040  0.61484494  0.94360037     0.06000
C809        C  0.78168416  0.62080492  0.92217283    -0.31100
O810        O  0.72964424  0.57611979  0.87726843    -0.22900
C811        C  0.72036024  0.55691042  0.88346515    -0.02900
C812        C  0.72709496  0.55007706  0.90471029    -0.17300
H813        H  0.75276931  0.55765195  0.94524105     0.20700
H814        H  0.75645824  0.61311986  0.88232550     0.19000
H815        H  0.78621074  0.63560220  0.91284156     0.19000
H816        H  0.72192964  0.53531408  0.91375179     0.14800
C817        C  0.16824271  0.39077620  0.44456407     0.30300
C818        C  0.18242064  0.40093670  0.42881901    -0.36100
C819        C  0.17152501  0.41286155  0.41177794     0.16300
C820        C  0.14830225  0.41487974  0.41052573     0.22100
C821        C  0.13411789  0.40466184  0.42626025    -0.34200
C822        C  0.14500389  0.39247380  0.44314602     0.16200
O823        O  0.17487087  0.37874835  0.46174910    -0.26200
C824        C  0.15566885  0.37242997  0.47135462     0.06000
C825        C  0.13647016  0.38044948  0.46054766    -0.31100
O826        O  0.14172528  0.42714750  0.39345050    -0.22900
C827        C  0.16095554  0.43290555  0.38353573    -0.02900
C828        C  0.18008121  0.42446537  0.39415007    -0.17300
H829        H  0.20063908  0.39956643  0.42976105     0.20700
H830        H  0.11590311  0.40606462  0.42534575     0.19000
H831        H  0.11892448  0.37793718  0.46496129     0.19000
H832        H  0.19764875  0.42688222  0.38975728     0.14800
C833        C  0.07470685  0.40408118  0.23897850     0.30300
C834        C  0.07433516  0.42342540  0.25243350    -0.36100
C835        C  0.09434485  0.42816014  0.26433998     0.16300
C836        C  0.11332171  0.41477920  0.26299631     0.22100
C837        C  0.11372454  0.39559691  0.24954623    -0.34200
C838        C  0.09379709  0.39085481  0.23778705     0.16200
O839        O  0.05797632  0.39629894  0.22644234    -0.26200
C840        C  0.06661822  0.37789627  0.21720250     0.06000
C841        C  0.08877629  0.37370845  0.22373179    -0.31100
O842        O  0.12999150  0.42190184  0.27577823    -0.22900
C843        C  0.12171202  0.44011537  0.28554410    -0.02900
C844        C  0.09960859  0.44494540  0.27902454    -0.17300
H845        H  0.05949133  0.43392950  0.25364906     0.20700
H846        H  0.12850821  0.38498954  0.24847424     0.19000
H847        H  0.09963494  0.36001880  0.21873999     0.19000
H848        H  0.08895742  0.45859812  0.28451148     0.14800
C849        C  0.06503138  0.11985570  0.33746089     0.30300
C850        C  0.08126730  0.10941911  0.32399812    -0.36100
C851        C  0.09706601  0.09602107  0.33512463     0.16300
C852        C  0.09691631  0.09295803  0.35796920     0.22100
C853        C  0.08077769  0.10368952  0.37155561    -0.34200
C854        C  0.06495139  0.11725705  0.36037496     0.16200
O855        O  0.04797790  0.13197915  0.33021208    -0.26200
C856        C  0.03680829  0.13749795  0.34865174     0.06000
C857        C  0.04663637  0.12896780  0.36803785    -0.31100
O858        O  0.11283390  0.07893870  0.36462883    -0.22900
C859        C  0.12330118  0.07314839  0.34576831    -0.02900
C860        C  0.11425359  0.08332949  0.32693490    -0.17300
H861        H  0.08126612  0.11123794  0.30601968     0.20700
H862        H  0.08032503  0.10128933  0.38945759     0.19000
H863        H  0.04055849  0.13027012  0.38503150     0.19000
H864        H  0.11934981  0.08132557  0.30969091     0.14800
C865        C  0.00941371  0.25843694  0.23621698     0.30300
C866        C  0.00434063  0.23588317  0.24027514    -0.36100
C867        C  0.99824312  0.23055615  0.26228593     0.16300
C868        C  0.99752475  0.24625726  0.27921773     0.22100
C869        C  0.00219844  0.26886949  0.27508340    -0.34200
C870        C  0.00799884  0.27423446  0.25301563     0.16200
O871        O  0.01554969  0.26713464  0.21689961    -0.26200
C872        C  0.01778778  0.28882361  0.22136007     0.06000
C873        C  0.01322329  0.29421926  0.24352104    -0.31100
O874        O  0.99240606  0.23742016  0.29873873    -0.22900
C875        C  0.98950204  0.21582591  0.29417904    -0.02900
C876        C  0.99273662  0.21060181  0.27175132    -0.17300
H877        H  0.00516843  0.22336837  0.22722430     0.20700
H878        H  0.00148182  0.28136449  0.28815953     0.19000
H879        H  0.01372814  0.31049783  0.25143424     0.19000
H880        H  0.99181586  0.19437406  0.26377001     0.14800
C881        C  0.86411101  0.40092562  0.60335325     0.30300
C882        C  0.87807157  0.39024249  0.58754433    -0.36100
C883        C  0.86690679  0.37670172  0.57170708     0.16300
C884        C  0.84370747  0.37402231  0.57164423     0.22100
C885        C  0.82995170  0.38421629  0.58761285    -0.34200
C886        C  0.84100514  0.39762434  0.60328198     0.16200
O887        O  0.87039366  0.41589238  0.61842434    -0.26200
C888        C  0.85099092  0.42197064  0.62798412     0.06000
C889        C  0.83227073  0.41099382  0.61937884    -0.31100
O890        O  0.83641028  0.36229166  0.55455128    -0.22900
C891        C  0.85505015  0.35704243  0.54344479    -0.02900
C892        C  0.87469464  0.36540211  0.55332637    -0.17300
H893        H  0.89615294  0.39299133  0.58707714     0.20700
H894        H  0.81172714  0.38252425  0.58727429     0.19000
H895        H  0.81463963  0.41344666  0.62356151     0.19000
H896        H  0.89188980  0.36426761  0.54728177     0.14800
C897        C  0.90851938  0.25750102  0.43498870     0.30300
C898        C  0.92713917  0.24295524  0.43401719    -0.36100
C899        C  0.92983357  0.23109479  0.41392407     0.16300
C900        C  0.91512713  0.23331685  0.39609126     0.22100
C901        C  0.89651351  0.24778640  0.39706926    -0.34200
C902        C  0.89391379  0.25971288  0.41707469     0.16200
O903        O  0.90280160  0.27032655  0.45205620    -0.26200
C904        C  0.88433503  0.28085537  0.44489823     0.06000
C905        C  0.87805210  0.27493359  0.42327070    -0.31100
O906        O  0.92107041  0.22103975  0.37878102    -0.22900
C907        C  0.93988185  0.21088414  0.38553304    -0.02900
C908        C  0.94614409  0.21641302  0.40727986    -0.17300
H909        H  0.93880641  0.24115837  0.44787190     0.20700
H910        H  0.88498383  0.24976404  0.38312059     0.19000
H911        H  0.86378505  0.28091097  0.41359578     0.19000
H912        H  0.96072997  0.21071349  0.41664170     0.14800
C913        C  0.44639004  0.61320500  0.17185185     0.30300
C914        C  0.43013091  0.60289118  0.18537552    -0.36100
C915        C  0.41400782  0.58982820  0.17417367     0.16300
C916        C  0.41398799  0.58702405  0.15126242     0.22100
C917        C  0.43009704  0.59753631  0.13771429    -0.34200
C918        C  0.44611381  0.61076183  0.14890075     0.16200
O919        O  0.46341291  0.62556350  0.17888380    -0.26200
C920        C  0.47401154  0.63134578  0.16020031     0.06000
C921        C  0.46396483  0.62275281  0.14098270    -0.31100
O922        O  0.39756918  0.57384502  0.14432837    -0.22900
C923        C  0.38687078  0.56826608  0.16300969    -0.02900
C924        C  0.39630031  0.57769698  0.18212914    -0.17300
H925        H  0.43017075  0.60477598  0.20336531     0.20700
H926        H  0.43019448  0.59545273  0.11974604     0.19000
H927        H  0.46942446  0.62452651  0.12383306     0.19000
H928        H  0.39092559  0.57582657  0.19929601     0.14800
C929        C  0.26850238  0.50525130  0.23877553     0.30300
C930        C  0.26442500  0.50280779  0.26170678    -0.36100
C931        C  0.24203375  0.49815013  0.26768249     0.16300
C932        C  0.22475079  0.49641671  0.25219560     0.22100
C933        C  0.22890535  0.49843556  0.22921360    -0.34200
C934        C  0.25139435  0.50269910  0.22320766     0.16200
O935        O  0.28802595  0.51034671  0.22955707    -0.26200
C936        C  0.28343575  0.51072614  0.20780270     0.06000
C937        C  0.26098808  0.50586777  0.20280071    -0.31100
O938        O  0.20502693  0.49240347  0.26155760    -0.22900
C939        C  0.20986296  0.49116666  0.28324179    -0.02900
C940        C  0.23259893  0.49453138  0.28806652    -0.17300
H941        H  0.27776007  0.50451248  0.27402527     0.20700
H942        H  0.21554565  0.49684637  0.21690253     0.19000
H943        H  0.25282622  0.50551312  0.18658107     0.19000
H944        H  0.24088603  0.49438925  0.30422326     0.14800
C945        C  0.27162900  0.59297374  0.10980234     0.30300
C946        C  0.26149897  0.61404045  0.10754892    -0.36100
C947        C  0.24629089  0.61633860  0.08967741     0.16300
C948        C  0.24133982  0.59917006  0.07498769     0.22100
C949        C  0.25166466  0.57815604  0.07713086    -0.34200
C950        C  0.26687251  0.57582808  0.09502947     0.16200
O951        O  0.28576142  0.58686705  0.12574252    -0.26200
C952        C  0.29016273  0.56555721  0.12104404     0.06000
C953        C  0.27894293  0.55779564  0.10211908    -0.31100
O954        O  0.22579446  0.60478649  0.06011302    -0.22900
C955        C  0.22080547  0.62582362  0.06541219    -0.02900
C956        C  0.23311598  0.63388809  0.08355981    -0.17300
H957        H  0.26489283  0.62754113  0.11914686     0.20700
H958        H  0.24778959  0.56446663  0.06591583     0.19000
H959        H  0.27931877  0.54118955  0.09492334     0.19000
H960        H  0.23201011  0.65014250  0.09146818     0.14800
C961        C  0.35888863  0.88896540  0.05888607     0.30300
C962        C  0.37226835  0.90215473  0.07323928    -0.36100
C963        C  0.36076147  0.91315440  0.09064003     0.16300
C964        C  0.33772546  0.91119008  0.09378973     0.22100
C965        C  0.32436299  0.89821742  0.07933966    -0.34200
C966        C  0.33581114  0.88737035  0.06191347     0.16200
O967        O  0.36598553  0.87721105  0.04149507    -0.26200
C968        C  0.34712839  0.86814229  0.03327782     0.06000
C969        C  0.32789397  0.87396024  0.04527118    -0.31100
O970        O  0.33048014  0.92258614  0.11129313    -0.22900
C971        C  0.34907726  0.93212985  0.11944637    -0.02900
C972        C  0.36841809  0.92693249  0.10722345    -0.17300
H973        H  0.39035455  0.90373000  0.07100878     0.20700
H974        H  0.30627026  0.89667403  0.08153801     0.19000
H975        H  0.31056089  0.86901809  0.04211874     0.19000
H976        H  0.38561773  0.93236722  0.11026452     0.14800
C977        C  0.23644012  0.73610428  0.00142048     0.30300
C978        C  0.24767724  0.74679251  0.98380311    -0.36100
C979        C  0.26526099  0.76132875  0.98991234     0.16300
C980        C  0.27171440  0.76478256  0.01183695     0.22100
C981        C  0.26024094  0.75431514  0.02952166    -0.34200
C982        C  0.24229468  0.74010772  0.02341917     0.16200
O983        O  0.22006713  0.72126629  0.99939138    -0.26200
C984        C  0.21500194  0.71595668  0.02036299     0.06000
C985        C  0.22816844  0.72727317  0.03606975    -0.31100
O986        O  0.28895572  0.77873607  0.01362961    -0.22900
C987        C  0.29328602  0.78457052  0.99259591    -0.02900
C988        C  0.27904549  0.77430201  0.97715451    -0.17300
H989        H  0.24308460  0.74389789  0.96651857     0.20700
H990        H  0.26499450  0.75702042  0.04679468     0.19000
H991        H  0.22806118  0.72547646  0.05406230     0.19000
H992        H  0.27900339  0.77603846  0.95915543     0.14800
C993        C  0.56253268  0.61704142  0.83320891     0.30300
C994        C  0.57526038  0.60204919  0.82039168    -0.36100
C995        C  0.59339733  0.59179204  0.83134764     0.16300
C996        C  0.59869824  0.59586485  0.85346972     0.22100
C997        C  0.58615970  0.61126188  0.86624837    -0.34200
C998        C  0.56794506  0.62163266  0.85521277     0.16200
O999        O  0.54408915  0.62736277  0.82655009    -0.26200
C1000       C  0.53755896  0.63890648  0.84439732     0.06000
C1001       C  0.55182025  0.63618301  0.86275326    -0.31100
O1002       O  0.61587081  0.58355743  0.86046005    -0.22900
C1003       C  0.62163065  0.57172009  0.84244656    -0.02900
C1004       C  0.60829846  0.57622417  0.82388398    -0.17300
H1005       H  0.57098592  0.59825281  0.80319974     0.20700
H1006       H  0.59000824  0.61454017  0.88363874     0.19000
H1007       H  0.55001362  0.64312106  0.87937389     0.19000
H1008       H  0.60922652  0.56878034  0.80740351     0.14800
C1009       C  0.41015915  0.76166331  0.93450791     0.30300
C1010       C  0.42943867  0.74776421  0.93380714    -0.36100
C1011       C  0.43264147  0.73553757  0.91385470     0.16300
C1012       C  0.41786263  0.73699898  0.89600040     0.22100
C1013       C  0.39875505  0.75071157  0.89672892    -0.34200
C1014       C  0.39560313  0.76280457  0.91647238     0.16200
O1015       O  0.40364709  0.77478199  0.95121811    -0.26200
C1016       C  0.38472169  0.78425713  0.94352577     0.06000
C1017       C  0.37904012  0.77736025  0.92207528    -0.31100
O1018       O  0.42402368  0.72464897  0.87886157    -0.22900
C1019       C  0.44306936  0.71499740  0.88558492    -0.02900
C1020       C  0.44931625  0.72103904  0.90728977    -0.17300
H1021       H  0.44113120  0.74665102  0.94771159     0.20700
H1022       H  0.38716770  0.75197473  0.88274604     0.19000
H1023       H  0.36469379  0.78242922  0.91200223     0.19000
H1024       H  0.46406225  0.71577568  0.91665860     0.14800
C1025       C  0.78221056  0.24926681  0.50464742     0.30300
C1026       C  0.77824890  0.22652391  0.50846934    -0.36100
C1027       C  0.75561598  0.22042427  0.51147667     0.16300
C1028       C  0.73810005  0.23569398  0.51125125     0.22100
C1029       C  0.74204435  0.25844787  0.50714720    -0.34200
C1030       C  0.76467796  0.26449128  0.50365349     0.16200
O1031       O  0.80206251  0.25853097  0.50118956    -0.26200
C1032       C  0.79717798  0.27988816  0.49757370     0.06000
C1033       C  0.77419271  0.28463076  0.49877855    -0.31100
O1034       O  0.71827715  0.22626651  0.51477370    -0.22900
C1035       C  0.72321887  0.20468745  0.51690233    -0.02900
C1036       C  0.74613833  0.20004250  0.51491051    -0.17300
H1037       H  0.79183751  0.21441738  0.50886084     0.20700
H1038       H  0.72843210  0.27052011  0.50651876     0.19000
H1039       H  0.76581838  0.30056069  0.49654935     0.19000
H1040       H  0.75454848  0.18401324  0.51602644     0.14800
C1041       C  0.93803730  0.12043654  0.64572352     0.30300
C1042       C  0.92217322  0.10794628  0.63331719    -0.36100
C1043       C  0.90733294  0.09450947  0.64582463     0.16300
C1044       C  0.90793406  0.09364057  0.66888244     0.22100
C1045       C  0.92372491  0.10602835  0.68118820    -0.34200
C1046       C  0.93856181  0.11925107  0.66875592     0.16200
O1047       O  0.95427713  0.13334844  0.63768391    -0.26200
C1048       C  0.96520802  0.14034107  0.65593034     0.06000
C1049       C  0.95609245  0.13212830  0.67561542    -0.31100
O1050       O  0.89272089  0.07994775  0.67725932    -0.22900
C1051       C  0.88223311  0.07174493  0.65937375    -0.02900
C1052       C  0.89063454  0.08012174  0.63932549    -0.17300
H1053       H  0.92168278  0.10836320  0.61524599     0.20700
H1054       H  0.92460522  0.10516683  0.69923060     0.19000
H1055       H  0.96204049  0.13472018  0.69255668     0.19000
H1056       H  0.88522463  0.07614751  0.62247950     0.14800
C1057       C  0.76635458  0.06762411  0.59602645     0.30300
C1058       C  0.75611235  0.06990190  0.57487659    -0.36100
C1059       C  0.74117683  0.08805601  0.57244702     0.16300
C1060       C  0.73675028  0.10283465  0.58965537     0.22100
C1061       C  0.74694000  0.10059353  0.61064390    -0.34200
C1062       C  0.76176926  0.08256879  0.61303814     0.16200
O1063       O  0.78100551  0.05207592  0.60218251    -0.26200
C1064       C  0.78573833  0.05732916  0.62335269     0.06000
C1065       C  0.77427240  0.07611739  0.63090641    -0.31100
O1066       O  0.72254613  0.11869989  0.58387403    -0.22900
C1067       C  0.71767120  0.11414474  0.56266982    -0.02900
C1068       C  0.72872819  0.09524961  0.55455995    -0.17300
H1069       H  0.75959177  0.05843298  0.56130426     0.20700
H1070       H  0.74361155  0.11218455  0.62415210     0.19000
H1071       H  0.77515106  0.08395326  0.64721423     0.19000
H1072       H  0.72788083  0.08807287  0.53795549     0.14800
C1073       C  0.50787629  0.76033673  0.73261582     0.30300
C1074       C  0.50241513  0.73787741  0.73681957    -0.36100
C1075       C  0.49844973  0.73239820  0.75929795     0.16300
C1076       C  0.50021182  0.74786380  0.77640408     0.22100
C1077       C  0.50534540  0.77025854  0.77217556    -0.34200
C1078       C  0.50887814  0.77578943  0.74978125     0.16200
O1079       O  0.51189780  0.76941159  0.71291796    -0.26200
C1080       C  0.51512914  0.79092440  0.71770806     0.06000
C1081       C  0.51340111  0.79582460  0.74029941    -0.31100
O1082       O  0.49635736  0.73916057  0.79619142    -0.22900
C1083       C  0.49169847  0.71790469  0.79176177    -0.02900
C1084       C  0.49259561  0.71268333  0.76909429    -0.17300
H1085       H  0.50116718  0.72562049  0.72353337     0.20700
H1086       H  0.50636126  0.78256645  0.78543398     0.19000
H1087       H  0.51515797  0.81188870  0.74849586     0.19000
H1088       H  0.48972363  0.69666777  0.76112045     0.14800
C1089       C  0.64734350  0.90599012  0.91063097     0.30300
C1090       C  0.63404989  0.89784482  0.92822380    -0.36100
C1091       C  0.64410803  0.88149795  0.94177124     0.16300
C1092       C  0.66582290  0.87378999  0.93830128     0.22100
C1093       C  0.67901394  0.88171028  0.92050070    -0.34200
C1094       C  0.66893298  0.89804651  0.90693074     0.16200
O1095       O  0.64155691  0.92185167  0.89647103    -0.26200
C1096       C  0.65963174  0.92410243  0.88347636     0.06000
C1097       C  0.67719069  0.90967669  0.88913865    -0.31100
O1098       O  0.67250209  0.85982852  0.95401931    -0.22900
C1099       C  0.65477235  0.85837881  0.96761317    -0.02900
C1100       C  0.63654193  0.87137856  0.96074025    -0.17300
H1101       H  0.61723569  0.90420856  0.93144632     0.20700
H1102       H  0.69616139  0.87599129  0.91780497     0.19000
H1103       H  0.69368230  0.90821620  0.88146589     0.19000
H1104       H  0.62061987  0.87402937  0.96922054     0.14800
C1105       C  0.74022031  0.99137877  0.77036401     0.30300
C1106       C  0.76200813  0.99998163  0.76675882    -0.36100
C1107       C  0.76923093  0.00071719  0.74442857     0.16300
C1108       C  0.75611425  0.99308447  0.72687917     0.22100
C1109       C  0.73427300  0.98458126  0.73047194    -0.34200
C1110       C  0.72685092  0.98434096  0.75274648     0.16200
O1111       O  0.72992361  0.98958573  0.78983248    -0.26200
C1112       C  0.70956527  0.98166540  0.78455380     0.06000
C1113       C  0.70662411  0.97820958  0.76173265    -0.31100
O1114       O  0.76605638  0.99573768  0.70732465    -0.22900
C1115       C  0.78569433  0.00545648  0.71237477    -0.02900
C1116       C  0.78858394  0.00894606  0.73521302    -0.17300
H1117       H  0.77242941  0.00606587  0.78036952     0.20700
H1118       H  0.72363287  0.97899987  0.71681433     0.19000
H1119       H  0.69180221  0.97194301  0.75310498     0.19000
H1120       H  0.80275271  0.01667754  0.74372156     0.14800
C1121       C  0.60617764  0.91130687  0.76755290     0.30300
C1122       C  0.60489190  0.89133648  0.75542696    -0.36100
C1123       C  0.58639117  0.88925629  0.74099409     0.16300
C1124       C  0.57007277  0.90558903  0.73863486     0.22100
C1125       C  0.57142479  0.92574469  0.75078043    -0.34200
C1126       C  0.59011893  0.92790529  0.76525023     0.16200
O1127       O  0.62228118  0.91664822  0.78175783    -0.26200
C1128       C  0.61666348  0.93697831  0.78874950     0.06000
C1129       C  0.59678545  0.94496096  0.77906901    -0.31100
O1130       O  0.55418021  0.89983853  0.72410541    -0.22900
C1131       C  0.56066212  0.87967164  0.71711355    -0.02900
C1132       C  0.58055066  0.87231665  0.72705055    -0.17300
H1133       H  0.61752394  0.87835336  0.75706463     0.20700
H1134       H  0.55888453  0.93879428  0.74902153     0.19000
H1135       H  0.58864059  0.96095377  0.78166617     0.19000
H1136       H  0.58936851  0.85667642  0.72441223     0.14800
C1137       C  0.90269074  0.66577719  0.10350591     0.30300
C1138       C  0.89017629  0.67841578  0.08815029    -0.36100
C1139       C  0.87989208  0.66641644  0.07073316     0.16300
C1140       C  0.88140834  0.64347643  0.06866978     0.22100
C1141       C  0.89387286  0.63077943  0.08412635    -0.34200
C1142       C  0.90445642  0.64285097  0.10142333     0.16200
O1143       O  0.91486326  0.67380284  0.12020296    -0.26200
C1144       C  0.92464162  0.65581485  0.12892741     0.06000
C1145       C  0.91873590  0.63606745  0.11799652    -0.31100
O1146       O  0.87101509  0.63588280  0.05058157    -0.22900
C1147       C  0.86295475  0.65427704  0.04094800    -0.02900
C1148       C  0.86800777  0.67370713  0.05271715    -0.17300
H1149       H  0.88911658  0.69643512  0.08930637     0.20700
H1150       H  0.89572219  0.61286314  0.08243000     0.19000
H1151       H  0.92472106  0.61930039  0.12131698     0.19000
H1152       H  0.86385480  0.69077339  0.04836580     0.14800
C1153       C  0.05675856  0.64857026  0.12192962     0.30300
C1154       C  0.07411603  0.63595694  0.11203041    -0.36100
C1155       C  0.08926102  0.64788554  0.09850120     0.16300
C1156       C  0.08748428  0.67062644  0.09506568     0.22100
C1157       C  0.07001814  0.68314974  0.10473885    -0.34200
C1158       C  0.05488602  0.67124508  0.11815131     0.16200
O1159       O  0.04080508  0.64099090  0.13531684    -0.26200
C1160       C  0.02857249  0.65908158  0.13995934     0.06000
C1161       C  0.03651719  0.67833427  0.12973694    -0.31100
O1162       O  0.10369144  0.67850354  0.08222639    -0.22900
C1163       C  0.11601208  0.66058640  0.07724687    -0.02900
C1164       C  0.10778086  0.64102126  0.08680034    -0.17300
H1165       H  0.07575461  0.61816655  0.11475683     0.20700
H1166       H  0.06840722  0.70095243  0.10208382     0.19000
H1167       H  0.02974397  0.69511218  0.13077401     0.19000
H1168       H  0.11457624  0.62427640  0.08546036     0.14800
C1169       C  0.84002931  0.43912404  0.39805133     0.30300
C1170       C  0.82612901  0.42562008  0.41129732    -0.36100
C1171       C  0.83686190  0.40775026  0.42202735     0.16300
C1172       C  0.85975800  0.40365102  0.42009114     0.22100
C1173       C  0.87364994  0.41711534  0.40676531    -0.34200
C1174       C  0.86286558  0.43486578  0.39582620     0.16200
O1175       O  0.83345194  0.45655713  0.38638065    -0.26200
C1176       C  0.85224357  0.46349236  0.37642201     0.06000
C1177       C  0.87113247  0.45067731  0.38166290    -0.31100
O1178       O  0.86630592  0.38626648  0.43188688    -0.22900
C1179       C  0.84733688  0.37906298  0.44130021    -0.02900
C1180       C  0.82843603  0.39168297  0.43572685    -0.17300
H1181       H  0.80819192  0.42877577  0.41302441     0.20700
H1182       H  0.89157700  0.41393083  0.40501292     0.19000
H1183       H  0.88833926  0.45273215  0.37590829     0.19000
H1184       H  0.81115370  0.38950492  0.44122414     0.14800
C1185       C  0.91428531  0.56268016  0.26789785     0.30300
C1186       C  0.93343375  0.56459047  0.25404308    -0.36100
C1187       C  0.93594822  0.58517115  0.24291460     0.16300
C1188       C  0.92059726  0.60241116  0.24530780     0.22100
C1189       C  0.90159024  0.60046709  0.25886255    -0.34200
C1190       C  0.89917954  0.58015698  0.26991557     0.16200
O1191       O  0.90848783  0.54531952  0.28035366    -0.26200
C1192       C  0.88947334  0.55208347  0.29024036     0.06000
C1193       C  0.88301835  0.57353825  0.28429580    -0.31100
O1194       O  0.92599072  0.62019052  0.23376686    -0.22900
C1195       C  0.94510916  0.61453444  0.22373404    -0.02900
C1196       C  0.95223641  0.59288751  0.22866745    -0.17300
H1197       H  0.94554045  0.55115310  0.25222550     0.20700
H1198       H  0.88957545  0.61397451  0.26080120     0.19000
H1199       H  0.86852074  0.58301284  0.28997758     0.19000
H1200       H  0.96705686  0.58418761  0.22260408     0.14800
C1201       C  0.12597219  0.94012971  0.35834694     0.30300
C1202       C  0.11474217  0.92406596  0.37137773    -0.36100
C1203       C  0.10245092  0.90772948  0.35950046     0.16300
C1204       C  0.10141016  0.90718791  0.33644611     0.22100
C1205       C  0.11248464  0.92323791  0.32349631    -0.34200
C1206       C  0.12460918  0.93955461  0.33531740     0.16200
O1207       O  0.13791719  0.95736076  0.36576113    -0.26200
C1208       C  0.14409995  0.96787442  0.34714215     0.06000
C1209       C  0.13626726  0.95752605  0.32780476    -0.31100
O1210       O  0.08860878  0.89084132  0.32874676    -0.22900
C1211       C  0.08121933  0.88075125  0.34707579    -0.02900
C1212       C  0.08924935  0.89051443  0.36672438    -0.17300
H1213       H  0.11526565  0.92445941  0.38945054     0.20700
H1214       H  0.11144148  0.92320664  0.30543852     0.19000
H1215       H  0.13848032  0.96279884  0.31066099     0.19000
H1216       H  0.08551739  0.88586611  0.38378436     0.14800
C1217       C  0.01850958  0.76308722  0.26797026     0.30300
C1218       C  0.02661394  0.74659283  0.25327639    -0.36100
C1219       C  0.01011649  0.73354789  0.24246971     0.16300
C1220       C  0.98721692  0.73680977  0.24553248     0.22100
C1221       C  0.97912577  0.75322162  0.26028515    -0.34200
C1222       C  0.99561366  0.76597214  0.27140171     0.16200
O1223       O  0.03091633  0.77640740  0.28067279    -0.26200
C1224       C  0.01574951  0.78776308  0.29255386     0.06000
C1225       C  0.99353927  0.78197849  0.28748836    -0.31100
O1226       O  0.97477907  0.72275460  0.23371268    -0.22900
C1227       C  0.98990798  0.71014067  0.22315033    -0.02900
C1228       C  0.01215917  0.71600472  0.22803122    -0.17300
H1229       H  0.04451794  0.74380844  0.25081235     0.20700
H1230       H  0.96123543  0.75559034  0.26321738     0.19000
H1231       H  0.97815969  0.78825479  0.29500600     0.19000
H1232       H  0.02754497  0.70852917  0.22170718     0.14800
C1233       C  0.14851428  0.56273658  0.38318160     0.30300
C1234       C  0.13555030  0.57812629  0.39544560    -0.36100
C1235       C  0.14774183  0.59342335  0.40866139     0.16300
C1236       C  0.17108008  0.59381425  0.40952653     0.22100
C1237       C  0.18402470  0.57847173  0.39726736    -0.34200
C1238       C  0.17184300  0.56301990  0.38431357     0.16200
O1239       O  0.14070432  0.54612777  0.37071785    -0.26200
C1240       C  0.15933704  0.53564513  0.36394886     0.06000
C1241       C  0.17912575  0.54544411  0.37187693    -0.31100
O1242       O  0.17895485  0.60919160  0.42338228    -0.22900
C1243       C  0.16040171  0.61863455  0.43166646    -0.02900
C1244       C  0.14051851  0.60951964  0.42310721    -0.17300
H1245       H  0.11725282  0.57782969  0.39516613     0.20700
H1246       H  0.20230605  0.57823739  0.39818751     0.19000
H1247       H  0.19637898  0.53992380  0.36940218     0.19000
H1248       H  0.12326354  0.61399039  0.42713795     0.14800
C1249       C  0.07109484  0.76228771  0.41276776     0.30300
C1250       C  0.07477346  0.75354612  0.43436766    -0.36100
C1251       C  0.09179614  0.73710248  0.43622781     0.16300
C1252       C  0.10421524  0.72993282  0.41807398     0.22100
C1253       C  0.10041414  0.73842823  0.39664485    -0.34200
C1254       C  0.08354576  0.75469604  0.39482100     0.16200
O1255       O  0.05696294  0.77856094  0.40708164    -0.26200
C1256       C  0.06060766  0.78121530  0.38523972     0.06000
C1257       C  0.07685114  0.76672212  0.37683411    -0.31100
O1258       O  0.11972895  0.71510749  0.42340287    -0.22900
C1259       C  0.11730134  0.71241136  0.44528713    -0.02900
C1260       C  0.10014285  0.72565336  0.45428997    -0.17300
H1261       H  0.06538266  0.75942006  0.44871320     0.20700
H1262       H  0.11026270  0.73302593  0.38241762     0.19000
H1263       H  0.08335333  0.76573783  0.35997317     0.19000
H1264       H  0.09492394  0.72693690  0.47156259     0.14800
C1265       C  0.11650066  0.06525927  0.64574752     0.30300
C1266       C  0.10399820  0.08036057  0.63263099    -0.36100
C1267       C  0.09189001  0.09686316  0.64435480     0.16300
C1268       C  0.09235148  0.09863837  0.66735730     0.22100
C1269       C  0.10481414  0.08356272  0.68044829    -0.34200
C1270       C  0.11660994  0.06687288  0.66876176     0.16200
O1271       O  0.12825575  0.04791727  0.63840342    -0.26200
C1272       C  0.13580018  0.03821677  0.65700548     0.06000
C1273       C  0.12907221  0.04931022  0.67635357    -0.31100
O1274       O  0.07951221  0.11506122  0.67488428    -0.22900
C1275       C  0.07052033  0.12382119  0.65647871    -0.02900
C1276       C  0.07757413  0.11316274  0.63698529    -0.17300
H1277       H  0.10335262  0.07903852  0.61461007     0.20700
H1278       H  0.10491535  0.08448930  0.69850296     0.19000
H1279       H  0.13251495  0.04480043  0.69353318     0.19000
H1280       H  0.07270876  0.11680666  0.61993016     0.14800
C1281       C  0.40617397  0.83308328  0.59307299     0.30300
C1282       C  0.41828725  0.82124319  0.60940640    -0.36100
C1283       C  0.43683762  0.83243680  0.61891321     0.16300
C1284       C  0.44304761  0.85382238  0.61288014     0.22100
C1285       C  0.43106305  0.86556945  0.59640293    -0.34200
C1286       C  0.41256723  0.85435467  0.58683969     0.16200
O1287       O  0.38805237  0.82601765  0.58220124    -0.26200
C1288       C  0.38289323  0.84298251  0.56877970     0.06000
C1289       C  0.39760047  0.86098839  0.57088668    -0.31100
O1290       O  0.46118181  0.86091490  0.62370956    -0.22900
C1291       C  0.46665753  0.84379064  0.63677814    -0.02900
C1292       C  0.45215662  0.82563073  0.63445860    -0.17300
H1293       H  0.41360772  0.80449408  0.61433793     0.20700
H1294       H  0.43585318  0.88224623  0.59134426     0.19000
H1295       H  0.39708581  0.87679854  0.56216365     0.19000
H1296       H  0.45313647  0.80955658  0.64265628     0.14800
C1297       C  0.40047078  0.84936065  0.40435594     0.30300
C1298       C  0.38816598  0.86385279  0.41829557    -0.36100
C1299       C  0.37542134  0.85363165  0.43517316     0.16300
C1300       C  0.37486578  0.83074412  0.43800472     0.22100
C1301       C  0.38676331  0.81628382  0.42382946    -0.34200
C1302       C  0.39950298  0.82647499  0.40704929     0.16200
O1303       O  0.41482783  0.85528387  0.38862872    -0.26200
C1304       C  0.42299615  0.83592785  0.38114435     0.06000
C1305       C  0.41396396  0.81744409  0.39186576    -0.31100
O1306       O  0.36361273  0.82479257  0.45593123    -0.22900
C1307       C  0.35671886  0.84403708  0.46471108    -0.02900
C1308       C  0.36336342  0.86260931  0.45244617    -0.17300
H1309       H  0.38916870  0.88183250  0.41665059     0.20700
H1310       H  0.38680554  0.79837134  0.42628881     0.19000
H1311       H  0.41815972  0.79999462  0.38944557     0.19000
H1312       H  0.36083860  0.88009392  0.45640873     0.14800
C1313       C  0.22249543  0.74948869  0.49790906     0.30300
C1314       C  0.22537578  0.77181601  0.50454627    -0.36100
C1315       C  0.24777911  0.77882615  0.50767370     0.16300
C1316       C  0.26606730  0.76479038  0.50466928     0.22100
C1317       C  0.26320207  0.74260887  0.49753912    -0.34200
C1318       C  0.24080059  0.73563743  0.49424007     0.16200
O1319       O  0.20303395  0.73915172  0.49502359    -0.26200
C1320       C  0.20895379  0.71850273  0.48917213     0.06000
C1321       C  0.23222069  0.71535609  0.48821779    -0.31100
O1322       O  0.28547677  0.77464342  0.50923749    -0.22900
C1323       C  0.27952452  0.79529343  0.51500910    -0.02900
C1324       C  0.25632183  0.79894053  0.51419919    -0.17300
H1325       H  0.21115191  0.78283063  0.50739555     0.20700
H1326       H  0.27741221  0.73149413  0.49504146     0.19000
H1327       H  0.24139887  0.70016844  0.48441837     0.19000
H1328       H  0.24715201  0.81413887  0.51798926     0.14800
C1329       C  0.23752038  0.93691415  0.59022280     0.30300
C1330       C  0.24719313  0.93318584  0.56901515    -0.36100
C1331       C  0.26364582  0.91614471  0.56786829     0.16300
C1332       C  0.26995259  0.90375164  0.58629628     0.22100
C1333       C  0.26040165  0.90746532  0.60727960    -0.34200
C1334       C  0.24412762  0.92432621  0.60839291     0.16200
O1335       O  0.22158975  0.95164036  0.59543967    -0.26200
C1336       C  0.21819286  0.94817845  0.61719674     0.06000
C1337       C  0.23172885  0.93139942  0.62597171    -0.31100
O1338       O  0.28477614  0.88809590  0.58157552    -0.22900
C1339       C  0.28824163  0.89034928  0.55981205    -0.02900
C1340       C  0.27565791  0.90760473  0.55028094    -0.17300
H1341       H  0.24209925  0.94264668  0.55447291     0.20700
H1342       H  0.26510330  0.89763594  0.62170262     0.19000
H1343       H  0.23220741  0.92517293  0.64292931     0.19000
H1344       H  0.27487680  0.91252899  0.53290993     0.14800
C1345       C  0.35481889  0.90938769  0.91248307     0.30300
C1346       C  0.36850654  0.92446873  0.90064676    -0.36100
C1347       C  0.35706035  0.94065858  0.88795315     0.16300
C1348       C  0.33376776  0.94207080  0.88728785     0.22100
C1349       C  0.32011205  0.92703980  0.89910520    -0.34200
C1350       C  0.33153188  0.91069128  0.91151827     0.16200
O1351       O  0.36189215  0.89280457  0.92523172    -0.26200
C1352       C  0.34288364  0.88329260  0.93238869     0.06000
C1353       C  0.32347474  0.89371706  0.92438116    -0.31100
O1354       O  0.32656310  0.95867445  0.87474248    -0.22900
C1355       C  0.34542777  0.96793525  0.86702802    -0.02900
C1356       C  0.36497849  0.95743589  0.87464576    -0.17300
H1357       H  0.38677853  0.92356568  0.90120689     0.20700
H1358       H  0.30183682  0.92798445  0.89858289     0.19000
H1359       H  0.30600913  0.88946977  0.92767372     0.19000
H1360       H  0.38238651  0.96183602  0.87128031     0.14800
C1361       C  0.27111544  0.99575104  0.76177922     0.30300
C1362       C  0.26024669  0.97908974  0.74916215    -0.36100
C1363       C  0.24449265  0.98662288  0.73330106     0.16300
C1364       C  0.24009822  0.00899801  0.72975202     0.22100
C1365       C  0.25075654  0.02563441  0.74257231    -0.34200
C1366       C  0.26614063  0.01808454  0.75876412     0.16200
O1367       O  0.28673776  0.99254059  0.77721609    -0.26200
C1368       C  0.29149754  0.01306321  0.78442487     0.06000
C1369       C  0.27911657  0.02961721  0.77368335    -0.31100
O1370       O  0.22493404  0.01227482  0.71387496    -0.22900
C1371       C  0.21925169  0.99171514  0.70749513    -0.02900
C1372       C  0.23083761  0.97508457  0.71898968    -0.17300
H1373       H  0.26377700  0.96152518  0.75157801     0.20700
H1374       H  0.24723311  0.04319870  0.74015959     0.19000
H1375       H  0.28012160  0.04752743  0.77602536     0.19000
H1376       H  0.22942587  0.95715848  0.71700015     0.14800
C1377       C  0.40883209  0.16764988  0.59424706     0.30300
C1378       C  0.39715777  0.18181634  0.57964780    -0.36100
C1379       C  0.38502612  0.17130554  0.56248039     0.16300
C1380       C  0.38422144  0.14839230  0.55981579     0.22100
C1381       C  0.39592152  0.13415017  0.57449625    -0.34200
C1382       C  0.40823619  0.14471418  0.59165953     0.16200
O1383       O  0.42187380  0.17405898  0.61094982    -0.26200
C1384       C  0.42985768  0.15501887  0.61917314     0.06000
C1385       C  0.42194920  0.13617970  0.60790026    -0.31100
O1386       O  0.37235002  0.14234196  0.54204568    -0.22900
C1387       C  0.36560349  0.16169972  0.53333778    -0.02900
C1388       C  0.37298767  0.18020202  0.54535029    -0.17300
H1389       H  0.39784430  0.19981507  0.58130151     0.20700
H1390       H  0.39579717  0.11617976  0.57243276     0.19000
H1391       H  0.42605099  0.11882824  0.61098082     0.19000
H1392       H  0.37030909  0.19770163  0.54164794     0.14800
C1393       C  0.56161118  0.16236779  0.61544065     0.30300
C1394       C  0.57662544  0.17620093  0.60389928    -0.36100
C1395       C  0.59437911  0.16539048  0.59293599     0.16300
C1396       C  0.59704126  0.14246775  0.59302092     0.22100
C1397       C  0.58219573  0.12859037  0.60494503    -0.34200
C1398       C  0.56449078  0.13947971  0.61617608     0.16200
O1399       O  0.54350240  0.16906077  0.62621362    -0.26200
C1400       C  0.53466883  0.15032927  0.63421200     0.06000
C1401       C  0.54703149  0.13131077  0.62864951    -0.31100
O1402       O  0.61414691  0.13592599  0.58051725    -0.22900
C1403       C  0.62261270  0.15495779  0.57268162    -0.02900
C1404       C  0.61113089  0.17381829  0.57996478    -0.17300
H1405       H  0.57441152  0.19414235  0.60325117     0.20700
H1406       H  0.58410346  0.11060397  0.60514781     0.19000
H1407       H  0.54340693  0.11408005  0.63275344     0.19000
H1408       H  0.61419470  0.19110694  0.57564801     0.14800
C1409       C  0.41902153  0.10638827  0.74049438     0.30300
C1410       C  0.39969624  0.10625036  0.75394092    -0.36100
C1411       C  0.39574888  0.08656976  0.76587445     0.16300
C1412       C  0.40985431  0.06821242  0.76486444     0.22100
C1413       C  0.42937761  0.06841538  0.75144088    -0.34200
C1414       C  0.43330606  0.08816750  0.73933779     0.16200
O1415       O  0.42537423  0.12284572  0.72741746    -0.26200
C1416       C  0.44401816  0.11521112  0.71767610     0.06000
C1417       C  0.44988569  0.09372744  0.72446311    -0.31100
O1418       O  0.40254058  0.05146960  0.77732832    -0.22900
C1419       C  0.38352102  0.05934740  0.78630630    -0.02900
C1420       C  0.37853687  0.08105912  0.77974060    -0.17300
H1421       H  0.38833958  0.12041126  0.75479083     0.20700
H1422       H  0.44053319  0.05412710  0.75029811     0.19000
H1423       H  0.46397867  0.08360493  0.71893123     0.19000
H1424       H  0.36421715  0.09128360  0.78448861     0.14800
C1425       C  0.94639650  0.35089267  0.11793511     0.30300
C1426       C  0.93198509  0.36391510  0.10456458    -0.36100
C1427       C  0.91454812  0.35237419  0.09348226     0.16300
C1428       C  0.91135422  0.32961394  0.09547468     0.22100
C1429       C  0.92579037  0.31658277  0.10878534    -0.34200
C1430       C  0.94329444  0.32810477  0.11976072     0.16200
O1431       O  0.96423874  0.35805817  0.12925449    -0.26200
C1432       C  0.97268085  0.33955576  0.13834884     0.06000
C1433       C  0.96033017  0.32047492  0.13301223    -0.31100
O1434       O  0.89411235  0.32228253  0.08341646    -0.22900
C1435       C  0.88625197  0.34060567  0.07350503    -0.02900
C1436       C  0.89830543  0.35978096  0.07913890    -0.17300
H1437       H  0.93436598  0.38173483  0.10269598     0.20700
H1438       H  0.92370073  0.29868861  0.11026865     0.19000
H1439       H  0.96374318  0.30337973  0.13783049     0.19000
H1440       H  0.89555258  0.37669027  0.07336301     0.14800
C1441       C  0.88926256  0.35436313  0.94364324     0.30300
C1442       C  0.90170529  0.36743167  0.92853687    -0.36100
C1443       C  0.91421735  0.35564550  0.91237533     0.16300
C1444       C  0.91432122  0.33260702  0.91101478     0.22100
C1445       C  0.90198166  0.31957525  0.92613533    -0.34200
C1446       C  0.88965062  0.33132816  0.94236610     0.16200
O1447       O  0.87675417  0.36175842  0.96043110    -0.26200
C1448       C  0.86912174  0.34315622  0.97000148     0.06000
C1449       C  0.87667064  0.32379489  0.95947830    -0.31100
O1450       O  0.92725627  0.32503716  0.89470091    -0.22900
C1451       C  0.93575403  0.34345422  0.88558991    -0.02900
C1452       C  0.92822394  0.36298454  0.89588333    -0.17300
H1453       H  0.90182553  0.38549771  0.92946028     0.20700
H1454       H  0.90215325  0.30149859  0.92543391     0.19000
H1455       H  0.87331579  0.30661752  0.96402323     0.19000
H1456       H  0.93247790  0.38007724  0.89178207     0.14800
C1457       C  0.60055312  0.59248848  0.15058245     0.30300
C1458       C  0.61373161  0.57799530  0.13740273    -0.36100
C1459       C  0.62384637  0.56000965  0.14873648     0.16300
C1460       C  0.62094497  0.55658288  0.17135918     0.22100
C1461       C  0.60803975  0.57111038  0.18448062    -0.34200
C1462       C  0.59820893  0.58910441  0.17326914     0.16200
O1463       O  0.58874075  0.60983267  0.14351983    -0.26200
C1464       C  0.57903757  0.61762052  0.16203703     0.06000
C1465       C  0.58447088  0.60551187  0.18102605    -0.31100
O1466       O  0.63144716  0.53867119  0.17860410    -0.22900
C1467       C  0.64144485  0.53047033  0.16052444    -0.02900
C1468       C  0.63736775  0.54299438  0.14134197    -0.17300
H1469       H  0.61575082  0.58042970  0.11960803     0.20700
H1470       H  0.60569735  0.56845911  0.20220171     0.19000
H1471       H  0.57841075  0.60792975  0.19791218     0.19000
H1472       H  0.64333114  0.53992447  0.12452706     0.14800
C1473       C  0.74541960  0.47881414  0.24490724     0.30300
C1474       C  0.76165269  0.46933191  0.25925580    -0.36100
C1475       C  0.77396323  0.48442060  0.27259594     0.16300
C1476       C  0.77005568  0.50716980  0.27233222     0.22100
C1477       C  0.75389497  0.51662500  0.25799492    -0.34200
C1478       C  0.74209465  0.50163738  0.24420234     0.16200
O1479       O  0.73286712  0.46802927  0.23009085    -0.26200
C1480       C  0.72168383  0.48423146  0.21956676     0.06000
C1481       C  0.72679937  0.50545422  0.22759802    -0.31100
O1482       O  0.78387680  0.51827109  0.28564557    -0.22900
C1483       C  0.79709609  0.50250718  0.29426872    -0.02900
C1484       C  0.79178039  0.48110821  0.28676348    -0.17300
H1485       H  0.76497457  0.45155432  0.25945173     0.20700
H1486       H  0.75125669  0.53449265  0.25711529     0.19000
H1487       H  0.72037053  0.52136814  0.22182638     0.19000
H1488       H  0.80005535  0.46551505  0.29089180     0.14800
C1489       C  0.74476712  0.43253574  0.09790585     0.30300
C1490       C  0.75641848  0.43123003  0.07741517    -0.36100
C1491       C  0.76964612  0.41189156  0.07410838     0.16300
C1492       C  0.77127384  0.39524230  0.08996055     0.22100
C1493       C  0.75970955  0.39652509  0.11023146    -0.34200
C1494       C  0.74651433  0.41560020  0.11342248     0.16200
O1495       O  0.73103935  0.44871591  0.10462887    -0.26200
C1496       C  0.72401169  0.44172110  0.12458147     0.06000
C1497       C  0.73310865  0.42129527  0.13078716    -0.31100
O1498       O  0.78428841  0.37860490  0.08365903    -0.22900
C1499       C  0.79120970  0.38442455  0.06342191    -0.02900
C1500       C  0.78265760  0.40500158  0.05647531    -0.17300
H1501       H  0.75511673  0.44419786  0.06492135     0.20700
H1502       H  0.76076804  0.38341744  0.12260351     0.19000
H1503       H  0.73007563  0.41188947  0.14590739     0.19000
H1504       H  0.78553420  0.41350982  0.04080932     0.14800
C1505       C  0.64879445  0.05477674  0.88811450     0.30300
C1506       C  0.63651849  0.06877000  0.90255693    -0.36100
C1507       C  0.64872428  0.08631927  0.91255752     0.16300
C1508       C  0.67140835  0.08996388  0.90855152     0.22100
C1509       C  0.68372861  0.07581403  0.89435261    -0.34200
C1510       C  0.67156577  0.05823610  0.88444758     0.16200
O1511       O  0.64090242  0.03720743  0.87713389    -0.26200
C1512       C  0.65892752  0.02930659  0.86641891     0.06000
C1513       C  0.67843578  0.04168414  0.87041176    -0.31100
O1514       O  0.67934514  0.10761017  0.91933452    -0.22900
C1515       C  0.66154152  0.11529805  0.93052356    -0.02900
C1516       C  0.64207321  0.10265218  0.92702358    -0.26900
H1517       H  0.61871696  0.06615499  0.90578972     0.20700
H1518       H  0.70156482  0.07833557  0.89123020     0.19000
H1519       H  0.69531574  0.03867882  0.86411799     0.19000
H1520       H  0.62539694  0.10528520  0.93396954     0.14800
C1521       C  0.76836592  0.26196725  0.01146588     0.30300
C1522       C  0.76433308  0.23901800  0.00826657    -0.36100
C1523       C  0.74264634  0.23319249  0.00052949     0.16300
C1524       C  0.72588086  0.24882051  0.99684776     0.22100
C1525       C  0.72989154  0.27174588  0.00007986    -0.34200
C1526       C  0.75174004  0.27760480  0.00723733     0.16200
O1527       O  0.78776648  0.27122223  0.01741832    -0.26200
C1528       C  0.78357895  0.29307721  0.01671257     0.06000
C1529       C  0.76143506  0.29802758  0.01051911    -0.31100
O1530       O  0.70685769  0.23971646  0.98966840    -0.22900
C1531       C  0.71159197  0.21800179  0.98829557    -0.02900
C1532       C  0.73362268  0.21294399  0.99482065    -0.17300
H1533       H  0.77737015  0.22663416  0.01104443     0.20700
H1534       H  0.71703900  0.28417664  0.99673537     0.19000
H1535       H  0.75376263  0.31430617  0.00835713     0.19000
H1536       H  0.74165790  0.19670735  0.99555385     0.14800
C1537       C  0.59645591  0.40513267  0.84977066     0.30300
C1538       C  0.60941608  0.41923078  0.86369670    -0.36100
C1539       C  0.62003237  0.43742613  0.85321704     0.16300
C1540       C  0.61788330  0.44145772  0.83061804     0.22100
C1541       C  0.60515155  0.42726814  0.81668856    -0.34200
C1542       C  0.59465850  0.40905464  0.82712584     0.16200
O1543       O  0.58454544  0.38758159  0.85611399    -0.26200
C1544       C  0.57511118  0.38006626  0.83726578     0.06000
C1545       C  0.58089646  0.39274306  0.81867545    -0.31100
O1546       O  0.62852275  0.45974473  0.82436345    -0.22900
C1547       C  0.63779253  0.46758125  0.84311554    -0.02900
C1548       C  0.63318153  0.45432485  0.86165692    -0.17300
H1549       H  0.61088068  0.41636810  0.88148888     0.20700
H1550       H  0.60332861  0.43038601  0.79897049     0.19000
H1551       H  0.57533704  0.39056071  0.80155585     0.19000
H1552       H  0.63835012  0.45700256  0.87882507     0.14800
C1553       C  0.52022220  0.25688493  0.76153567     0.30300
C1554       C  0.52910459  0.23984498  0.74792109    -0.36100
C1555       C  0.51333757  0.22785664  0.73501157     0.16300
C1556       C  0.49050689  0.23271040  0.73507592     0.22100
C1557       C  0.48161889  0.24956355  0.74882052    -0.34200
C1558       C  0.49728538  0.26115696  0.76212049     0.16200
O1559       O  0.53173990  0.26968706  0.77552642    -0.26200
C1560       C  0.51590870  0.28203371  0.78541783     0.06000
C1561       C  0.49416470  0.27737404  0.77782797    -0.31100
O1562       O  0.47877800  0.21943424  0.72180129    -0.22900
C1563       C  0.49420429  0.20564278  0.71338717    -0.02900
C1564       C  0.51601382  0.20998004  0.72105147    -0.17300
H1565       H  0.54696809  0.23592109  0.74775219     0.20700
H1566       H  0.46367921  0.25308069  0.74942911     0.19000
H1567       H  0.47838308  0.28476270  0.78323687     0.19000
H1568       H  0.53148740  0.20123325  0.71694390     0.14800
C1569       C  0.58249380  0.25432405  0.88730579     0.30300
C1570       C  0.60121003  0.24003209  0.88761166    -0.36100
C1571       C  0.60560481  0.22926399  0.90785420     0.16300
C1572       C  0.59248063  0.23213048  0.92666843     0.22100
C1573       C  0.57339110  0.24631060  0.92627579    -0.34200
C1574       C  0.56900626  0.25728132  0.90586954     0.16200
O1575       O  0.57641113  0.26697721  0.87040562    -0.26200
C1576       C  0.55867912  0.27829836  0.87795824     0.06000
C1577       C  0.55308922  0.27289522  0.89993572    -0.31100
O1578       O  0.60052203  0.22090829  0.94404279    -0.22900
C1579       C  0.61895457  0.21083045  0.93602150    -0.02900
C1580       C  0.62282012  0.21544496  0.91364083    -0.17300
H1581       H  0.61199645  0.23792817  0.87318663     0.20700
H1582       H  0.56306926  0.24902198  0.94093077     0.19000
H1583       H  0.53987719  0.28001127  0.91021412     0.19000
H1584       H  0.63661582  0.20973385  0.90323489     0.14800
C1585       C  0.59374060  0.14869885  0.40967690     0.30300
C1586       C  0.60444514  0.13446509  0.42509335    -0.36100
C1587       C  0.61755991  0.14496669  0.44166982     0.16300
C1588       C  0.61969351  0.16789383  0.44309526     0.22100
C1589       C  0.60902870  0.18210369  0.42769499    -0.34200
C1590       C  0.59616612  0.17160295  0.41097825     0.16200
O1591       O  0.58073577  0.14248897  0.39281248    -0.26200
C1592       C  0.57488682  0.16164853  0.38310384     0.06000
C1593       C  0.58401443  0.18032835  0.39366345    -0.31100
O1594       O  0.63243581  0.17421331  0.46005715    -0.22900
C1595       C  0.63878832  0.15512137  0.46953243    -0.02900
C1596       C  0.63006005  0.13631667  0.45883972    -0.17300
H1597       H  0.60272192  0.11648769  0.42417755     0.20700
H1598       H  0.61069605  0.20008494  0.42866011     0.19000
H1599       H  0.58183999  0.19774401  0.38932411     0.19000
H1600       H  0.63226497  0.11893866  0.46330803     0.14800
C1601       C  0.44673249  0.17273277  0.38467299     0.30300
C1602       C  0.43168627  0.18692769  0.39597639    -0.36100
C1603       C  0.41479788  0.17643341  0.40853537     0.16300
C1604       C  0.41294917  0.15350911  0.41004963     0.22100
C1605       C  0.42795895  0.13925253  0.39857900    -0.34200
C1606       C  0.44477407  0.14978786  0.38579041     0.16200
O1607       O  0.46401685  0.17914402  0.37245620    -0.26200
C1608       C  0.47325245  0.16014093  0.36537326     0.06000
C1609       C  0.46195931  0.14123295  0.37304535    -0.31100
O1610       O  0.39608333  0.14733701  0.42308009    -0.22900
C1611       C  0.38692722  0.16656503  0.42984087    -0.02900
C1612       C  0.39787242  0.18522276  0.42128361    -0.17300
H1613       H  0.43314065  0.20492309  0.39512387     0.20700
H1614       H  0.42666513  0.12125777  0.39962791     0.19000
H1615       H  0.46616281  0.12385921  0.37017945     0.19000
H1616       H  0.39404398  0.20267286  0.42421038     0.14800
C1617       C  0.65318281  0.09317841  0.09135113     0.30300
C1618       C  0.63908333  0.10377484  0.07568280    -0.36100
C1619       C  0.64999934  0.11702633  0.05969775     0.16300
C1620       C  0.67319871  0.11953095  0.05914168     0.22100
C1621       C  0.68726604  0.10911050  0.07490834    -0.34200
C1622       C  0.67635198  0.09596695  0.09093466     0.16200
O1623       O  0.64665081  0.07959022  0.10739160    -0.26200
C1624       C  0.66586943  0.07372508  0.11743610     0.06000
C1625       C  0.68489582  0.08343937  0.10796511    -0.31100
O1626       O  0.67992593  0.13185253  0.04222776    -0.22900
C1627       C  0.66081514  0.13751098  0.03189652    -0.02900
C1628       C  0.64160864  0.12882177  0.04201953    -0.17300
H1629       H  0.62091427  0.10160015  0.07577512     0.20700
H1630       H  0.70547784  0.11087738  0.07450623     0.19000
H1631       H  0.70244054  0.08126938  0.11271056     0.19000
H1632       H  0.62416679  0.13035262  0.03669415     0.14800
C1633       C  0.65160418  0.94365046  0.11538636     0.30300
C1634       C  0.63826193  0.92921936  0.10227308    -0.36100
C1635       C  0.64975949  0.91169111  0.09147287     0.16300
C1636       C  0.67278810  0.90844125  0.09350560     0.22100
C1637       C  0.68614977  0.92295786  0.10648016    -0.34200
C1638       C  0.67467687  0.94055847  0.11715525     0.16200
O1639       O  0.64446696  0.96135399  0.12666102    -0.26200
C1640       C  0.66326529  0.96975919  0.13566929     0.06000
C1641       C  0.68253678  0.95753091  0.13024761    -0.31100
O1642       O  0.68001845  0.89101333  0.08189516    -0.22900
C1643       C  0.66138122  0.88306828  0.07217062    -0.02900
C1644       C  0.64208002  0.89528682  0.07753251    -0.17300
H1645       H  0.62020299  0.93158497  0.10047315     0.20700
H1646       H  0.70426011  0.92078726  0.10801459     0.19000
H1647       H  0.69987933  0.96087454  0.13504868     0.19000
H1648       H  0.62489510  0.89249250  0.07189929     0.14800
C1649       C  0.60016184  0.07454804  0.23610844     0.30300
C1650       C  0.57992255  0.07550637  0.24846082    -0.36100
C1651       C  0.57693424  0.09454821  0.26204380     0.16300
C1652       C  0.59283230  0.11137824  0.26335490     0.22100
C1653       C  0.61302230  0.11038958  0.25113162    -0.34200
C1654       C  0.61594112  0.09147310  0.23755783     0.16200
O1655       O  0.60646928  0.05843784  0.22223277    -0.26200
C1656       C  0.62652513  0.06523152  0.21472772     0.06000
C1657       C  0.63321121  0.08566546  0.22371781    -0.31100
O1658       O  0.58659320  0.12780127  0.27670888    -0.22900
C1659       C  0.56636882  0.12158179  0.28414195    -0.02900
C1660       C  0.55947121  0.10094835  0.27564805    -0.17300
H1661       H  0.56734643  0.06241611  0.24744380     0.20700
H1662       H  0.62552655  0.12356051  0.25202203     0.19000
H1663       H  0.64861532  0.09487078  0.22052857     0.19000
H1664       H  0.54385988  0.09211182  0.27886251     0.14800
C1665       C  0.94598500  0.88455188  0.35499146     0.30300
C1666       C  0.92756390  0.89263979  0.36738921    -0.36100
C1667       C  0.91207123  0.90610679  0.35572864     0.16300
C1668       C  0.91427339  0.91098836  0.33331002     0.22100
C1669       C  0.93271362  0.90292851  0.32091039    -0.34200
C1670       C  0.94841924  0.88979237  0.33267927     0.16200
O1671       O  0.96263984  0.87189720  0.36259344    -0.26200
C1672       C  0.97602524  0.86918922  0.34494611     0.06000
C1673       C  0.96806113  0.88002343  0.32592099    -0.31100
O1674       O  0.89808667  0.92433848  0.32593833    -0.22900
C1675       C  0.88551956  0.92826316  0.34395990    -0.02900
C1676       C  0.89339977  0.91733168  0.36294109    -0.17300
H1677       H  0.92563923  0.88899457  0.38497291     0.20700
H1678       H  0.93487825  0.90693839  0.30343364     0.19000
H1679       H  0.97555683  0.88040335  0.30944936     0.19000
H1680       H  0.88656337  0.91791406  0.37968703     0.14800
C1681       C  0.87884667  0.06186620  0.33652975     0.30300
C1682       C  0.88867594  0.07806222  0.32265227    -0.36100
C1683       C  0.90358057  0.09307575  0.33309382     0.16300
C1684       C  0.90837551  0.09223154  0.35566128     0.22100
C1685       C  0.89813874  0.07635870  0.36963123    -0.34200
C1686       C  0.88326142  0.06129359  0.35918279     0.16200
O1687       O  0.86620301  0.04497304  0.32986693    -0.26200
C1688       C  0.86223724  0.03348822  0.34846971     0.06000
C1689       C  0.87222534  0.04297960  0.36733190    -0.31100
O1690       O  0.92374414  0.10702794  0.36171409    -0.22900
C1691       C  0.92881166  0.11756661  0.34282715    -0.02900
C1692       C  0.91670779  0.10969186  0.32444808    -0.17300
H1693       H  0.88558171  0.07838369  0.30482686     0.20700
H1694       H  0.90210882  0.07534636  0.38726318     0.19000
H1695       H  0.87255367  0.03652816  0.38420799     0.19000
H1696       H  0.91779603  0.11508770  0.30723816     0.14800
C1697       C  0.77197471  0.99215173  0.26184050     0.30300
C1698       C  0.76873403  0.99624883  0.23888964    -0.36100
C1699       C  0.74699616  0.00352027  0.23258619     0.16300
C1700       C  0.72963522  0.00605605  0.24776301     0.22100
C1701       C  0.73295202  0.00227294  0.27060697    -0.34200
C1702       C  0.75467332  0.99545644  0.27692309     0.16200
O1703       O  0.79092120  0.98563539  0.27168222    -0.26200
C1704       C  0.78556789  0.98511123  0.29330286     0.06000
C1705       C  0.76331568  0.99111802  0.29749171    -0.31100
O1706       O  0.71049337  0.01218041  0.23831350    -0.22900
C1707       C  0.71564965  0.01402130  0.21681529    -0.02900
C1708       C  0.73815734  0.00900250  0.21219449    -0.17300
H1709       H  0.78218123  0.99406700  0.22686960     0.20700
H1710       H  0.71953478  0.00456403  0.28263847     0.19000
H1711       H  0.75481385  0.99224900  0.31344287     0.19000
H1712       H  0.74651811  0.00879373  0.19613597     0.14800
C1713       C  0.59391152  0.82431696  0.41113673     0.30300
C1714       C  0.57729073  0.81090965  0.40104105    -0.36100
C1715       C  0.55982254  0.82237025  0.39003574     0.16300
C1716       C  0.55898535  0.84539265  0.38869013     0.22100
C1717       C  0.57561853  0.85877171  0.39872615    -0.34200
C1718       C  0.59286843  0.84734351  0.41001528     0.16200
O1719       O  0.61097442  0.81723992  0.42348361    -0.26200
C1720       C  0.62079649  0.83600662  0.43045332     0.06000
C1721       C  0.61035212  0.85522584  0.42252873    -0.31100
O1722       O  0.54115008  0.85260605  0.37757223    -0.22900
C1723       C  0.53032518  0.83396996  0.37189903    -0.02900
C1724       C  0.54108014  0.81464544  0.37926498    -0.17300
H1725       H  0.57766181  0.79286813  0.40214350     0.20700
H1726       H  0.57490503  0.87682768  0.39816501     0.19000
H1727       H  0.61457646  0.87246537  0.42613224     0.19000
H1728       H  0.53595299  0.79744943  0.37678700     0.14800
C1729       C  0.61623521  0.85143696  0.56056080     0.30300
C1730       C  0.60323534  0.86451910  0.57516590    -0.36100
C1731       C  0.59186873  0.85284554  0.59202897     0.16300
C1732       C  0.59334715  0.82995211  0.59450776     0.22100
C1733       C  0.60635756  0.81689439  0.57995926    -0.34200
C1734       C  0.61750066  0.82852554  0.56297197     0.16200
O1735       O  0.62765849  0.85868964  0.54311155    -0.26200
C1736       C  0.63616405  0.84011061  0.53425172     0.06000
C1737       C  0.63038594  0.82087731  0.54586656    -0.31100
O1738       O  0.58090457  0.82245639  0.61109340    -0.22900
C1739       C  0.57128686  0.84079340  0.61925175    -0.02900
C1740       C  0.57746674  0.86019661  0.60810939    -0.17300
H1741       H  0.60175157  0.88242250  0.57327073     0.20700
H1742       H  0.60736230  0.79892445  0.58150603     0.19000
H1743       H  0.63479578  0.80373919  0.54203351     0.19000
H1744       H  0.57192213  0.87714997  0.61125376     0.14800
C1745       C  0.73824671  0.90418485  0.43265380     0.30300
C1746       C  0.75114410  0.92398055  0.43188501    -0.36100
C1747       C  0.76381263  0.92739170  0.41226082     0.16300
C1748       C  0.76376165  0.91231113  0.39476127     0.22100
C1749       C  0.75092511  0.89266511  0.39552361    -0.34200
C1750       C  0.73833157  0.88931172  0.41498863     0.16200
O1751       O  0.72511875  0.89743410  0.44922096    -0.26200
C1752       C  0.71681406  0.87802132  0.44188569     0.06000
C1753       C  0.72447790  0.87221457  0.42073747    -0.31100
O1754       O  0.77686694  0.91850629  0.37813393    -0.22900
C1755       C  0.78553087  0.93789789  0.38486912    -0.02900
C1756       C  0.77799117  0.94434876  0.40600425    -0.17300
H1757       H  0.75131308  0.93582758  0.44557020     0.20700
H1758       H  0.75080554  0.88077223  0.38187564     0.19000
H1759       H  0.72039748  0.85747218  0.41100924     0.19000
H1760       H  0.78244366  0.95919683  0.41539398     0.14800
C1761       C  0.36371848  0.05830548  0.12044764     0.30300
C1762       C  0.37631135  0.07183357  0.10596155    -0.36100
C1763       C  0.36427867  0.08898236  0.09524517     0.16300
C1764       C  0.34144392  0.09257059  0.09849018     0.22100
C1765       C  0.32888320  0.07908989  0.11295211    -0.34200
C1766       C  0.34089556  0.06198664  0.12364758     0.16200
O1767       O  0.37124195  0.04078698  0.13163838    -0.26200
C1768       C  0.35293116  0.03326662  0.14207887     0.06000
C1769       C  0.33363711  0.04578853  0.13769797    -0.31100
O1770       O  0.33349381  0.10915986  0.08632654    -0.22900
C1771       C  0.35149138  0.11629327  0.07518281    -0.02900
C1772       C  0.37110984  0.10443683  0.08008298    -0.17300
H1773       H  0.39413076  0.06900443  0.10300583     0.20700
H1774       H  0.31093135  0.08154909  0.11544324     0.19000
H1775       H  0.31657129  0.04291568  0.14352044     0.19000
H1776       H  0.38785070  0.10667560  0.07317950     0.14800
C1777       C  0.35744972  0.08777017  0.91019569     0.30300
C1778       C  0.37088826  0.10300957  0.92227585    -0.36100
C1779       C  0.36179789  0.11073750  0.94253800     0.16300
C1780       C  0.34104455  0.10369679  0.95032808     0.22100
C1781       C  0.32766787  0.08851917  0.93828975    -0.34200
C1782       C  0.33657302  0.08107725  0.91796038     0.16200
O1783       O  0.36248384  0.07851670  0.89081542    -0.26200
C1784       C  0.34444901  0.06606419  0.88602202     0.06000
C1785       C  0.32776549  0.06700985  0.90227299    -0.31100
O1786       O  0.33543763  0.11332313  0.96927898    -0.22900
C1787       C  0.35270209  0.12680908  0.97380200    -0.02900
C1788       C  0.36973677  0.12592283  0.95779522    -0.17300
H1789       H  0.38712557  0.10862400  0.91617621     0.20700
H1790       H  0.31127073  0.08317409  0.94421697     0.19000
H1791       H  0.31171165  0.05832887  0.90261828     0.19000
H1792       H  0.38532866  0.13537361  0.95725275     0.14800
C1793       C  0.41032799  0.40835759  0.16546562     0.30300
C1794       C  0.39719117  0.42275891  0.17851317    -0.36100
C1795       C  0.38641806  0.44011748  0.16707318     0.16300
C1796       C  0.38825110  0.44321888  0.14429504     0.22100
C1797       C  0.40161259  0.42884289  0.13118537    -0.34200
C1798       C  0.41249433  0.41139220  0.14269816     0.16200
O1799       O  0.42209157  0.39123910  0.17292325    -0.26200
C1800       C  0.43204153  0.38314479  0.15475820     0.06000
C1801       C  0.42671472  0.39496378  0.13541615    -0.31100
O1802       O  0.37660983  0.46074927  0.13726982    -0.22900
C1803       C  0.36736602  0.46881729  0.15590125    -0.02900
C1804       C  0.37299138  0.45671303  0.17486686    -0.17300
H1805       H  0.39558193  0.42064853  0.19639228     0.20700
H1806       H  0.40347580  0.43114453  0.11335600     0.19000
H1807       H  0.43269964  0.39204724  0.11858142     0.19000
H1808       H  0.36802059  0.45985212  0.19198917     0.14800
C1809       C  0.59822101  0.40926044  0.15176108     0.30300
C1810       C  0.58447381  0.39612136  0.13771625    -0.36100
C1811       C  0.56625764  0.38525747  0.14805568     0.16300
C1812       C  0.56184530  0.38739703  0.17059927     0.22100
C1813       C  0.57571269  0.40029866  0.18465446    -0.34200
C1814       C  0.59397981  0.41099160  0.17436874     0.16200
O1815       O  0.61590506  0.42116078  0.14562237    -0.26200
C1816       C  0.62315920  0.43043839  0.16458363     0.06000
C1817       C  0.61021603  0.42467601  0.18303149    -0.31100
O1818       O  0.54350518  0.37656655  0.17666802    -0.22900
C1819       C  0.53609138  0.36717061  0.15785540    -0.02900
C1820       C  0.54962693  0.37186294  0.13946513    -0.17300
H1821       H  0.58764280  0.39464237  0.11997651     0.20700
H1822       H  0.57235321  0.40204409  0.20233475     0.19000
H1823       H  0.61230741  0.43003028  0.20020694     0.19000
H1824       H  0.54722621  0.36666158  0.12228212     0.14800
C1825       C  0.51793595  0.23966179  0.26159748     0.30300
C1826       C  0.52666008  0.25511163  0.24629205    -0.36100
C1827       C  0.51071849  0.26699808  0.23363140     0.16300
C1828       C  0.48768679  0.26426521  0.23609633     0.22100
C1829       C  0.47891769  0.24858447  0.25126786    -0.34200
C1830       C  0.49493408  0.23634482  0.26366678     0.16200
O1831       O  0.52991054  0.22637775  0.27464368    -0.26200
C1832       C  0.51445011  0.21407094  0.28499245     0.06000
C1833       C  0.49237668  0.21948123  0.27880009    -0.31100
O1834       O  0.47593218  0.27713674  0.22236970    -0.22900
C1835       C  0.49171652  0.28797846  0.21082264    -0.02900
C1836       C  0.51361375  0.28225517  0.21706277    -0.17300
H1837       H  0.54466625  0.25743678  0.24413664     0.20700
H1838       H  0.46092055  0.24585379  0.25300687     0.19000
H1839       H  0.47679098  0.21196985  0.28451305     0.19000
H1840       H  0.52936500  0.28836068  0.21023407     0.14800
C1841       C  0.40499155  0.22944563  0.08760916     0.30300
C1842       C  0.40789205  0.23963977  0.10843570    -0.36100
C1843       C  0.42489872  0.25575543  0.10972028     0.16300
C1844       C  0.43841352  0.26150762  0.09187261     0.22100
C1845       C  0.43561064  0.25107423  0.07090649    -0.34200
C1846       C  0.41836887  0.23489154  0.06955060     0.16200
O1847       O  0.38926694  0.21476682  0.08262330    -0.26200
C1848       C  0.39248714  0.21056910  0.06108021     0.06000
C1849       C  0.41044603  0.22247293  0.05196128    -0.31100
O1850       O  0.45282212  0.27769415  0.09700247    -0.22900
C1851       C  0.44820298  0.28218436  0.11834794    -0.02900
C1852       C  0.43104702  0.26903202  0.12700881    -0.17300
H1853       H  0.39725121  0.23564596  0.12254760     0.20700
H1854       H  0.44578227  0.25555531  0.05661119     0.19000
H1855       H  0.41629931  0.22245972  0.03484541     0.19000
H1856       H  0.42388755  0.26946963  0.14363355     0.14800
C1857       C  0.10428670  0.33108942  0.90354791     0.30300
C1858       C  0.08956107  0.31874719  0.88976773    -0.36100
C1859       C  0.07231521  0.33093241  0.87910647     0.16300
C1860       C  0.06984064  0.35374483  0.88156446     0.22100
C1861       C  0.08477152  0.36612808  0.89510279    -0.34200
C1862       C  0.10186899  0.35391053  0.90596697     0.16200
O1863       O  0.12049641  0.32286514  0.91639236    -0.26200
C1864       C  0.12854548  0.34065273  0.92723263     0.06000
C1865       C  0.11770704  0.36042961  0.92127582    -0.31100
O1866       O  0.05165159  0.36149899  0.87122663    -0.22900
C1867       C  0.04231110  0.34338955  0.86207263    -0.02900
C1868       C  0.05450095  0.32393747  0.86637764    -0.17300
H1869       H  0.09091875  0.30078444  0.88814905     0.20700
H1870       H  0.08269082  0.38391550  0.89765720     0.19000
H1871       H  0.12054532  0.37704935  0.92789521     0.19000
H1872       H  0.05031047  0.30698228  0.86156988     0.14800
C1873       C  0.12749172  0.34612609  0.06484278     0.30300
C1874       C  0.11773387  0.35876753  0.08215180    -0.36100
C1875       C  0.10371962  0.34705487  0.09700683     0.16300
C1876       C  0.09995660  0.32434412  0.09533228     0.22100
C1877       C  0.10987059  0.31166467  0.07814554    -0.34200
C1878       C  0.12347090  0.32347014  0.06299673     0.16200
O1879       O  0.13983351  0.35393469  0.04818763    -0.26200
C1880       C  0.14355385  0.33607266  0.03537296     0.06000
C1881       C  0.13385833  0.31667212  0.04384438    -0.31100
O1882       O  0.08555885  0.31698782  0.11050132    -0.22900
C1883       C  0.07983095  0.33528174  0.12189211    -0.02900
C1884       C  0.09062251  0.35444805  0.11422890    -0.17300
H1885       H  0.12022146  0.37664060  0.08346510     0.20700
H1886       H  0.10656101  0.29397166  0.07624131     0.19000
H1887       H  0.13396639  0.30007560  0.03659263     0.19000
H1888       H  0.08874713  0.37142475  0.12024485     0.14800
C1889       C  0.24361498  0.26343811  0.00773825     0.30300
C1890       C  0.25485241  0.25199753  0.02495456    -0.36100
C1891       C  0.27046833  0.23568948  0.01818173     0.16300
C1892       C  0.27506248  0.23125826  0.99600030     0.22100
C1893       C  0.26344211  0.24234713  0.97877658    -0.34200
C1894       C  0.24750984  0.25837277  0.98555714     0.16200
O1895       O  0.22896696  0.27987536  0.01026913    -0.26200
C1896       C  0.22308541  0.28511983  0.98945550     0.06000
C1897       C  0.23393810  0.27220534  0.97337342    -0.31100
O1898       O  0.29129904  0.21632235  0.99349661    -0.22900
C1899       C  0.29683047  0.21081679  0.01434481    -0.02900
C1900       C  0.28432616  0.22219320  0.03039482    -0.17300
H1901       H  0.25185749  0.25576124  0.04239089     0.20700
H1902       H  0.26681256  0.23894691  0.96133513     0.19000
H1903       H  0.23257137  0.27338316  0.95537446     0.19000
H1904       H  0.28585411  0.22124285  0.04839625     0.14800
C1905       C  0.41045946  0.40601612  0.83539935     0.30300
C1906       C  0.42375553  0.39234575  0.82165829    -0.36100
C1907       C  0.44104322  0.38043701  0.83238714     0.16300
C1908       C  0.44482144  0.38153459  0.85514624     0.22100
C1909       C  0.43140822  0.39516479  0.86894785    -0.34200
C1910       C  0.41432282  0.40741047  0.85813168     0.16200
O1911       O  0.39399249  0.41925014  0.82866827    -0.26200
C1912       C  0.38730427  0.42941624  0.84728023     0.06000
C1913       C  0.39931838  0.42274302  0.86616517    -0.31100
O1914       O  0.46268166  0.36979719  0.86139649    -0.22900
C1915       C  0.47048069  0.36130012  0.84232767    -0.02900
C1916       C  0.45765413  0.36731177  0.82378716    -0.17300
H1917       H  0.42121308  0.39155277  0.80376246     0.20700
H1918       H  0.43450139  0.39662893  0.88671995     0.19000
H1919       H  0.39734402  0.42845346  0.88322889     0.19000
H1920       H  0.46062609  0.36320854  0.80641293     0.14800
C1921       C  0.41229714  0.59549219  0.85550550     0.30300
C1922       C  0.40202045  0.57988410  0.86965286    -0.36100
C1923       C  0.38877929  0.56352036  0.85912672     0.16300
C1924       C  0.38601808  0.56252100  0.83622696     0.22100
C1925       C  0.39601364  0.57834782  0.82208316    -0.34200
C1926       C  0.40915646  0.59479228  0.83263741     0.16200
O1927       O  0.42611333  0.61158554  0.86176030    -0.26200
C1928       C  0.43177123  0.62143121  0.84270500     0.06000
C1929       C  0.42167388  0.61180833  0.82399262    -0.31100
O1930       O  0.37400939  0.54509315  0.82986659    -0.22900
C1931       C  0.36877530  0.53496121  0.84892969    -0.02900
C1932       C  0.37741013  0.54570214  0.86772440    -0.17300
H1933       H  0.40454666  0.58022288  0.88756896     0.20700
H1934       H  0.39406530  0.57760313  0.80410686     0.19000
H1935       H  0.42376227  0.61630454  0.80661113     0.19000
H1936       H  0.37620666  0.54064870  0.88503152     0.14800
C1937       C  0.27299553  0.42800319  0.91538926     0.30300
C1938       C  0.26072729  0.42620394  0.93546562    -0.36100
C1939       C  0.24728691  0.40690536  0.93771214     0.16300
C1940       C  0.24623680  0.39061836  0.92135065     0.22100
C1941       C  0.25832665  0.39244145  0.90141214    -0.34200
C1942       C  0.27158967  0.41159541  0.89918607     0.16200
O1943       O  0.28645008  0.44461277  0.90940297    -0.26200
C1944       C  0.29360009  0.43852961  0.88916602     0.06000
C1945       C  0.28489526  0.41817656  0.88205796    -0.31100
O1946       O  0.23289794  0.37394947  0.92669029    -0.22900
C1947       C  0.22504967  0.37946567  0.94672409    -0.02900
C1948       C  0.23332009  0.39987740  0.95452045    -0.17300
H1949       H  0.26153080  0.43892624  0.94832291     0.20700
H1950       H  0.25741760  0.37978279  0.88849220     0.19000
H1951       H  0.28778928  0.40959110  0.86637415     0.19000
H1952       H  0.22965574  0.40819317  0.97017940     0.14800
C1953       C  0.85557331  0.58987440  0.59238149     0.30300
C1954       C  0.86913356  0.57612533  0.60592187    -0.36100
C1955       C  0.85814030  0.55798216  0.61600919     0.16300
C1956       C  0.83543946  0.55359446  0.61278906     0.22100
C1957       C  0.82185407  0.56748111  0.59950012    -0.34200
C1958       C  0.83277020  0.58571147  0.58962733     0.16200
O1959       O  0.86236850  0.60742415  0.58091452    -0.26200
C1960       C  0.84359763  0.61467856  0.57094210     0.06000
C1961       C  0.82465711  0.60190925  0.57583797    -0.31100
O1962       O  0.82869767  0.53556253  0.62344953    -0.22900
C1963       C  0.84723931  0.52837345  0.63383597    -0.02900
C1964       C  0.86609349  0.54167794  0.62987912    -0.17300
H1965       H  0.88700058  0.57927722  0.60831943     0.20700
H1966       H  0.80402223  0.56423998  0.59696287     0.19000
H1967       H  0.80755020  0.60397054  0.56968284     0.19000
H1968       H  0.88313159  0.53954869  0.63618851     0.14800
C1969       C  0.86243215  0.61224594  0.44393835     0.30300
C1970       C  0.87556878  0.59680529  0.43189556    -0.36100
C1971       C  0.86478381  0.58637667  0.41369740     0.16300
C1972       C  0.84270929  0.59101904  0.40767978     0.22100
C1973       C  0.82969838  0.60654587  0.41955328    -0.34200
C1974       C  0.84034611  0.61671708  0.43785181     0.16200
O1975       O  0.86849498  0.62290376  0.46236941    -0.26200
C1976       C  0.84997110  0.63417471  0.46810276     0.06000
C1977       C  0.83197886  0.63094920  0.45348038    -0.31100
O1978       O  0.83557172  0.57862157  0.39087884    -0.22900
C1979       C  0.85324697  0.56581051  0.38604318    -0.02900
C1980       C  0.87197658  0.56992393  0.39959011    -0.17300
H1981       H  0.89270432  0.59269485  0.43678730     0.20700
H1982       H  0.81223105  0.60990338  0.41526969     0.19000
H1983       H  0.81498081  0.63757230  0.45464354     0.19000
H1984       H  0.88823570  0.56160603  0.39942166     0.14800
C1985       C  0.77744324  0.74471557  0.50967668     0.30300
C1986       C  0.77386439  0.76707306  0.50379916    -0.36100
C1987       C  0.75129671  0.77355944  0.50111599     0.16300
C1988       C  0.73340508  0.75896905  0.50359270     0.22100
C1989       C  0.73696228  0.73663756  0.50998077    -0.34200
C1990       C  0.75962987  0.73021116  0.51304252     0.16200
O1991       O  0.79726388  0.73505487  0.51224699    -0.26200
C1992       C  0.79221973  0.71413770  0.51766882     0.06000
C1993       C  0.76904211  0.71011017  0.51861410    -0.31100
O1994       O  0.71376388  0.76845810  0.49906023    -0.22900
C1995       C  0.71927634  0.78941846  0.49406154    -0.02900
C1996       C  0.74231581  0.79360671  0.49524178    -0.17300
H1997       H  0.78774470  0.77854638  0.50123118     0.20700
H1998       H  0.72309560  0.72505678  0.51212277     0.19000
H1999       H  0.76047471  0.69454860  0.52217144     0.19000
H2000       H  0.75115142  0.80901307  0.49163965     0.14800
C2001       C  0.88911470  0.94026885  0.64941040     0.30300
C2002       C  0.89932044  0.92375874  0.63606721    -0.36100
C2003       C  0.91158025  0.90721338  0.64752389     0.16300
C2004       C  0.91356807  0.90687641  0.67051847     0.22100
C2005       C  0.90357604  0.92348207  0.68381990    -0.34200
C2006       C  0.89146436  0.94006300  0.67237322     0.16200
O2007       O  0.87653941  0.95711088  0.64232399    -0.26200
C2008       C  0.87091629  0.96783513  0.66102666     0.06000
C2009       C  0.87986598  0.95807468  0.68017627    -0.31100
O2010       O  0.92599857  0.89004508  0.67773881    -0.22900
C2011       C  0.93221999  0.87951692  0.65913342    -0.02900
C2012       C  0.92372582  0.88941896  0.63981914    -0.17300
H2013       H  0.89782092  0.92381129  0.61803775     0.20700
H2014       H  0.90518639  0.92350884  0.70184245     0.19000
H2015       H  0.87779002  0.96332070  0.69738062     0.19000
H2016       H  0.92645006  0.88444175  0.62262976     0.14800
C2017       C  0.06369042  0.88278591  0.64808232     0.30300
C2018       C  0.07951438  0.89446960  0.63509846    -0.36100
C2019       C  0.09482173  0.90812830  0.64688110     0.16300
C2020       C  0.09482915  0.90996674  0.66988247     0.22100
C2021       C  0.07908809  0.89821219  0.68287159    -0.34200
C2022       C  0.06357297  0.88482454  0.67106791     0.16200
O2023       O  0.04709653  0.86996029  0.64051088    -0.26200
C2024       C  0.03610641  0.86387679  0.65891226     0.06000
C2025       C  0.04564039  0.87261740  0.67836645    -0.31100
O2026       O  0.11021509  0.92420147  0.67735823    -0.22900
C2027       C  0.12010336  0.93168763  0.65887090    -0.02900
C2028       C  0.11123542  0.92223230  0.63944649    -0.17300
H2029       H  0.07952696  0.89343595  0.61704404     0.20700
H2030       H  0.07858951  0.89983744  0.70087587     0.19000
H2031       H  0.03985633  0.87063369  0.69538881     0.19000
H2032       H  0.11599936  0.92554190  0.62232341     0.14800
C2033       C  0.91146811  0.73484160  0.56887752     0.30300
C2034       C  0.93120307  0.74813019  0.56937928    -0.36100
C2035       C  0.93491747  0.76055517  0.58915882     0.16300
C2036       C  0.92010550  0.75989481  0.60692816     0.22100
C2037       C  0.90056229  0.74679720  0.60639096    -0.34200
C2038       C  0.89699293  0.73440626  0.58690644     0.16200
O2039       O  0.90448012  0.72163030  0.55241058    -0.26200
C2040       C  0.88542054  0.71273014  0.56032054     0.06000
C2041       C  0.88005553  0.72011456  0.58163267    -0.31100
O2042       O  0.92654446  0.77250089  0.62378635    -0.22900
C2043       C  0.94585056  0.78152235  0.61704666    -0.02900
C2044       C  0.95201348  0.77476213  0.59554657    -0.17300
H2045       H  0.94284076  0.74863910  0.55547859     0.20700
H2046       H  0.88897968  0.74619071  0.62033269     0.19000
H2047       H  0.86566420  0.71557887  0.59178668     0.19000
H2048       H  0.96677761  0.77960735  0.58609078     0.14800
C2049       C  0.17139623  0.61741056  0.56648485     0.30300
C2050       C  0.18515709  0.60748515  0.58296812    -0.36100
C2051       C  0.17403882  0.59405123  0.59877291     0.16300
C2052       C  0.15098604  0.59056115  0.59831218     0.22100
C2053       C  0.13720000  0.60075866  0.58204465    -0.34200
C2054       C  0.14829437  0.61424479  0.56630115     0.16200
O2055       O  0.17833996  0.62977473  0.54955497    -0.26200
C2056       C  0.15941865  0.63477863  0.53844181     0.06000
C2057       C  0.14018389  0.62563288  0.54817580    -0.31100
O2058       O  0.14421239  0.57670486  0.61410659    -0.22900
C2059       C  0.16313064  0.57131909  0.62501649    -0.02900
C2060       C  0.18222607  0.58171303  0.61625407    -0.17300
H2061       H  0.20330009  0.60975747  0.58321387     0.20700
H2062       H  0.11912530  0.59805250  0.58147188     0.19000
H2063       H  0.12287593  0.62665355  0.54234235     0.19000
H2064       H  0.19961261  0.58005771  0.62169755     0.14800
C2065       C  0.14745655  0.44234958  0.62265150     0.30300
C2066       C  0.13428928  0.42913651  0.60817267    -0.36100
C2067       C  0.14574589  0.41196813  0.59681767     0.16300
C2068       C  0.16857275  0.40793605  0.59961072     0.22100
C2069       C  0.18173125  0.42112632  0.61409569    -0.34200
C2070       C  0.17031153  0.43838922  0.62532050     0.16200
O2071       O  0.14046241  0.45993444  0.63413978    -0.26200
C2072       C  0.15910945  0.46737663  0.64422306     0.06000
C2073       C  0.17815946  0.45460090  0.63935663    -0.31100
O2074       O  0.17591699  0.39135612  0.58693307    -0.22900
C2075       C  0.15757055  0.38472485  0.57580860    -0.02900
C2076       C  0.13831380  0.39693595  0.58129611    -0.17300
H2077       H  0.11644342  0.43230336  0.60559553     0.20700
H2078       H  0.19972037  0.41839670  0.61614150     0.19000
H2079       H  0.19541425  0.45731098  0.64483538     0.19000
H2080       H  0.12137938  0.39515963  0.57458840     0.14800
C2081       C  0.27071391  0.49739299  0.77030896     0.30300
C2082       C  0.26677350  0.50457243  0.74831578    -0.36100
C2083       C  0.24402242  0.50706817  0.74202736     0.16300
C2084       C  0.22631945  0.50237443  0.75622694     0.22100
C2085       C  0.23025678  0.49542563  0.77833883    -0.34200
C2086       C  0.25304649  0.49339585  0.78477684     0.16200
O2087       O  0.29067703  0.49418015  0.77970565    -0.26200
C2088       C  0.28575476  0.48845077  0.80059185     0.06000
C2089       C  0.26262440  0.48777066  0.80476664    -0.31100
O2090       O  0.20638840  0.50549882  0.74667559    -0.22900
C2091       C  0.21142182  0.51259251  0.72619380    -0.02900
C2092       C  0.23457265  0.51397601  0.72240794    -0.17300
H2093       H  0.28049047  0.50813568  0.73696163     0.20700
H2094       H  0.21654624  0.49203712  0.78975479     0.19000
H2095       H  0.25417240  0.48357390  0.82020783     0.19000
H2096       H  0.24314716  0.51906526  0.70730919     0.14800
C2097       C  0.09924382  0.65147234  0.91091583     0.30300
C2098       C  0.11241472  0.63788536  0.92511705    -0.36100
C2099       C  0.12200991  0.64858930  0.94387013     0.16300
C2100       C  0.11867246  0.67101292  0.94821214     0.22100
C2101       C  0.10590666  0.68456989  0.93390513    -0.34200
C2102       C  0.09647896  0.67396910  0.91522356     0.16200
O2103       O  0.08750518  0.64486769  0.89325617    -0.26200
C2104       C  0.07731448  0.66345631  0.88618365     0.06000
C2105       C  0.08244791  0.68208458  0.89911201    -0.31100
O2106       O  0.12810291  0.67753330  0.96703962    -0.22900
C2107       C  0.13787674  0.65920373  0.97497434    -0.02900
C2108       C  0.13480584  0.64057115  0.96124079    -0.17300
H2109       H  0.11456584  0.62018622  0.92205741     0.20700
H2110       H  0.10309372  0.70209288  0.93739794     0.19000
H2111       H  0.07593497  0.69890447  0.89748401     0.19000
H2112       H  0.14061010  0.62363534  0.96394392     0.14800
C2113       C  0.90863097  0.66452169  0.91368567     0.30300
C2114       C  0.92211506  0.67772706  0.89976952    -0.36100
C2115       C  0.94087709  0.66712600  0.89019579     0.16300
C2116       C  0.94593741  0.64488543  0.89364343     0.22100
C2117       C  0.93238881  0.63158978  0.90766234    -0.34200
C2118       C  0.91371646  0.64234945  0.91757648     0.16200
O2119       O  0.89083448  0.67146240  0.92495999    -0.26200
C2120       C  0.88439083  0.65360984  0.93643792     0.06000
C2121       C  0.89795370  0.63492990  0.93250069    -0.31100
O2122       O  0.96456718  0.63862850  0.88306933    -0.22900
C2123       C  0.97153374  0.65724068  0.87298922    -0.02900
C2124       C  0.95746922  0.67543350  0.87693526    -0.17300
H2125       H  0.91847972  0.69521510  0.89696356     0.20700
H2126       H  0.93634484  0.61424701  0.91092367     0.19000
H2127       H  0.89659741  0.61847262  0.93983212     0.19000
H2128       H  0.95929960  0.69238144  0.87094223     0.14800
C2129       C  0.98761888  0.76050286  0.73793360     0.30300
C2130       C  0.97861793  0.74480608  0.75288454    -0.36100
C2131       C  0.99417516  0.73434842  0.76723994     0.16300
C2132       C  0.01695936  0.73935947  0.76726483     0.22100
C2133       C  0.02598682  0.75493737  0.75218736    -0.34200
C2134       C  0.01050901  0.76498743  0.73745046     0.16200
O2135       O  0.97620660  0.77189366  0.72275438    -0.26200
C2136       C  0.99204040  0.78351352  0.71212737     0.06000
C2137       C  0.01371453  0.77980630  0.72045944    -0.31100
O2138       O  0.02851039  0.72721341  0.78175549    -0.22900
C2139       C  0.01298013  0.71401527  0.79090667    -0.02900
C2140       C  0.99132370  0.71770276  0.78250246    -0.17300
H2141       H  0.96079841  0.74070001  0.75299814     0.20700
H2142       H  0.04389907  0.75858122  0.75164103     0.19000
H2143       H  0.02945653  0.78712908  0.71491758     0.19000
H2144       H  0.97584859  0.70905266  0.78671780     0.14800
C2145       C  0.10759335  0.58792458  0.74105021     0.30300
C2146       C  0.10526971  0.60891984  0.75112764    -0.36100
C2147       C  0.08653739  0.61169005  0.76506127     0.16300
C2148       C  0.07100206  0.59498844  0.76905085     0.22100
C2149       C  0.07334201  0.57378636  0.75888366    -0.34200
C2150       C  0.09221106  0.57099866  0.74474033     0.16200
O2151       O  0.12393271  0.58202381  0.72737873    -0.26200
C2152       C  0.11915060  0.56100184  0.72197311     0.06000
C2153       C  0.09958191  0.55312393  0.73230717    -0.31100
O2154       O  0.05502726  0.60142853  0.78321051    -0.22900
C2155       C  0.06059346  0.62249808  0.78816688    -0.02900
C2156       C  0.07998305  0.62965051  0.77729384    -0.17300
H2157       H  0.11732021  0.62221688  0.74831860     0.20700
H2158       H  0.06138979  0.56043862  0.76182908     0.19000
H2159       H  0.09195957  0.53674342  0.73085003     0.19000
H2160       H  0.08832293  0.64570710  0.77859519     0.14800
loop_ 
_geom_bond_atom_site_label_1 
_geom_bond_atom_site_label_2 
_geom_bond_distance 
_geom_bond_site_symmetry_2 
_ccdc_geom_bond_type 
In1           O3   2.252       .  S
In1           O4   2.261       .  S
In1          O12   2.222       .  S
In1           O6   2.282       .  S
In1           O8   2.277       .  S
In1           O9   2.257       .  S
In1          O10   2.239       .  S
In1          O13   2.252       .  S
C2            O8   1.264   1_655  A
C2           O10   1.260   1_655  A
C2         C2123   1.476       .  S
O3           C11   1.257       .  A
O4           C11   1.262       .  A
C5           O12   1.259       .  A
C5            O6   1.265       .  A
C5         C2155   1.476       .  S
C7            O9   1.263       .  A
C7           O13   1.263       .  A
C7         C2139   1.474       .  S
C11        C2104   1.471       .  S
In14         O16   2.258       .  S
In14         O17   2.277       .  S
In14         O25   2.229       .  S
In14         O19   2.280       .  S
In14         O21   2.271       .  S
In14         O22   2.256       .  S
In14         O23   2.242       .  S
In14         O26   2.251       .  S
C15          O21   1.263       .  A
C15          O23   1.258       .  A
C15        C2072   1.473       .  S
O16          C24   1.260       .  A
O17          C24   1.264       .  A
C18          O25   1.260       .  A
C18          O19   1.265       .  A
C18        C2152   1.475       .  S
C20          O22   1.265       .  A
C20          O26   1.262       .  A
C20        C2091   1.474       .  S
C24        C2059   1.482       .  S
In27         O29   2.254       .  S
In27         O30   2.256       .  S
In27         O38   2.221       .  S
In27         O32   2.290       .  S
In27         O34   2.274   1_655  S
In27         O35   2.252       .  S
In27         O36   2.233   1_655  S
In27         O39   2.256   1_655  S
C28          O34   1.266       .  A
C28          O36   1.260       .  A
C28        C2024   1.476       .  S
O29          C37   1.260       .  A
O30          C37   1.261       .  A
C31          O38   1.257       .  A
C31          O32   1.265       .  A
C31        C2043   1.473       .  S
C33          O35   1.261       .  A
C33          O39   1.262   1_655  A
C33        C2136   1.471       .  S
C37        C2011   1.471       .  S
In40         O42   2.244       .  S
In40         O43   2.250       .  S
In40         O51   2.215       .  S
In40         O45   2.269       .  S
In40         O47   2.264       .  S
In40         O48   2.263       .  S
In40         O49   2.235       .  S
In40         O52   2.233       .  S
C41          O47   1.260       .  A
C41          O49   1.257       .  A
C41        C1976   1.465       .  S
O42          C50   1.258       .  A
O43          C50   1.262       .  A
C44          O51   1.262       .  A
C44          O45   1.265       .  A
C44        C2040   1.470       .  S
C46          O48   1.263       .  A
C46          O52   1.260       .  A
C46        C1992   1.467       .  S
C50        C1960   1.466       .  S
In53         O55   2.245       .  S
In53         O56   2.243       .  S
In53         O64   2.206       .  S
In53         O58   2.264       .  S
In53         O60   2.224       .  S
In53         O61   2.247       .  S
In53         O62   2.267       .  S
In53         O65   2.248       .  S
C54          O60   1.256       .  A
C54          O62   1.265       .  A
C54        C1931   1.466       .  S
O55          C63   1.260       .  A
O56          C63   1.262       .  A
C57          O64   1.262       .  A
C57          O58   1.268       .  A
C57        C1944   1.468       .  S
C59          O61   1.262       .  A
C59          O65   1.263       .  A
C59        C2088   1.469       .  S
C63        C1912   1.466       .  S
In66         O68   2.255       .  S
In66         O69   2.264       .  S
In66         O77   2.216       .  S
In66         O71   2.281       .  S
In66         O73   2.272   1_556  S
In66         O74   2.251       .  S
In66         O75   2.241   1_556  S
In66         O78   2.244       .  S
C67          O73   1.265       .  A
C67          O75   1.261       .  A
C67        C1880   1.477       .  S
O68          C76   1.260       .  A
O69          C76   1.261       .  A
C70          O77   1.257       .  A
C70          O71   1.265       .  A
C70        C1947   1.468       .  S
C72          O74   1.263       .  A
C72          O78   1.261       .  A
C72        C1896   1.468       .  S
C76        C1864   1.476       .  S
In79         O81   2.251       .  S
In79         O82   2.244       .  S
In79         O90   2.206       .  S
In79         O84   2.282       .  S
In79         O86   2.263       .  S
In79         O87   2.259       .  S
In79         O88   2.222       .  S
In79         O91   2.243       .  S
C80          O86   1.267       .  A
C80          O88   1.261       .  A
C80        C1819   1.469       .  S
O81          C89   1.260       .  A
O82          C89   1.261       .  A
C83          O90   1.257       .  A
C83          O84   1.265       .  A
C83        C1851   1.468       .  S
C85          O87   1.262       .  A
C85          O91   1.262       .  A
C85        C1835   1.472       .  S
C89        C1800   1.467       .  S
In92         O94   2.230       .  S
In92         O95   2.245       .  S
In92        O103   2.212       .  S
In92         O97   2.267       .  S
In92         O99   2.269   1_554  S
In92        O100   2.252       .  S
In92        O101   2.216       .  S
In92        O104   2.251       .  S
C93          O99   1.265       .  A
C93         O101   1.259   1_556  A
C93        C1787   1.467       .  S
O94         C102   1.261       .  A
O95         C102   1.263       .  A
C96         O103   1.257       .  A
C96          O97   1.264       .  A
C96        C1848   1.463       .  S
C98         O100   1.261       .  A
C98         O104   1.260       .  A
C98        C1899   1.468       .  S
C102       C1771   1.464       .  S
In105       O107   2.229       .  S
In105       O108   2.247       .  S
In105       O116   2.217       .  S
In105       O110   2.264       .  S
In105       O112   2.265       .  S
In105       O113   2.241       .  S
In105       O114   2.219       .  S
In105       O117   2.232       .  S
C106        O112   1.264       .  A
C106        O114   1.256       .  A
C106       C1736   1.463       .  S
O107        C115   1.260       .  A
O108        C115   1.262       .  A
C109        O116   1.262       .  A
C109        O110   1.267       .  A
C109       C1752   1.472       .  S
C111        O113   1.262       .  A
C111        O117   1.262       .  A
C111       C1995   1.462       .  S
C115       C1720   1.463       .  S
In118       O120   2.252       .  S
In118       O121   2.264       .  S
In118       O129   2.239       .  S
In118       O123   2.275       .  S
In118       O125   2.236   1_565  S
In118       O126   2.232       .  S
In118       O127   2.287   1_565  S
In118       O130   2.259       .  S
C119        O125   1.255       .  A
C119        O127   1.263       .  A
C119       C1688   1.472       .  S
O120        C128   1.259       .  A
O121        C128   1.260       .  A
C122        O129   1.261       .  A
C122        O123   1.265       .  A
C122       C1755   1.476       .  S
C124        O126   1.262       .  A
C124        O130   1.263       .  A
C124       C1704   1.468       .  S
C128       C1675   1.473       .  S
In131       O133   2.239       .  S
In131       O134   2.253       .  S
In131       O142   2.235       .  S
In131       O136   2.267       .  S
In131       O138   2.281       .  S
In131       O139   2.252       .  S
In131       O140   2.236       .  S
In131       O143   2.231       .  S
C132        O138   1.265   1_565  A
C132        O140   1.257   1_565  A
C132       C1640   1.476       .  S
O133        C141   1.259       .  A
O134        C141   1.263       .  A
C135        O142   1.263       .  A
C135        O136   1.267       .  A
C135       C1656   1.477       .  S
C137        O139   1.264       .  A
C137        O143   1.262       .  A
C137       C1707   1.465       .  S
C141       C1624   1.468       .  S
In144       O146   2.242       .  S
In144       O147   2.262       .  S
In144       O155   2.234       .  S
In144       O149   2.283       .  S
In144       O151   2.275       .  S
In144       O152   2.257       .  S
In144       O153   2.221       .  S
In144       O156   2.255       .  S
C145        O151   1.267       .  A
C145        O153   1.260       .  A
C145       C1608   1.472       .  S
O146        C154   1.259       .  A
O147        C154   1.263       .  A
C148        O155   1.258       .  A
C148        O149   1.266       .  A
C148       C1659   1.476       .  S
C150        O152   1.263       .  A
C150        O156   1.262       .  A
C150       C1832   1.474       .  S
C154       C1592   1.471       .  S
In157       O159   2.259       .  S
In157       O160   2.274       .  S
In157       O168   2.224       .  S
In157       O162   2.283       .  S
In157       O164   2.263       .  S
In157       O165   2.257       .  S
In157       O166   2.231       .  S
In157       O169   2.248       .  S
C158        O164   1.264       .  A
C158        O166   1.260       .  A
C158       C1915   1.469       .  S
O159        C167   1.258       .  A
O160        C167   1.262       .  A
C161        O168   1.258       .  A
C161        O162   1.264       .  A
C161       C1576   1.472       .  S
C163        O165   1.263       .  A
C163        O169   1.261       .  A
C163       C1560   1.470       .  S
C167       C1544   1.478       .  S
In170       O172   2.237       .  S
In170       O173   2.266       .  S
In170       O181   2.223       .  S
In170       O175   2.267       .  S
In170       O177   2.266   1_556  S
In170       O178   2.265       .  S
In170       O179   2.226   1_556  S
In170       O182   2.244       .  S
C171        O177   1.265       .  A
C171        O179   1.257       .  A
C171       C1627   1.467       .  S
O172        C180   1.260       .  A
O173        C180   1.266       .  A
C174        O181   1.263       .  A
C174        O175   1.267       .  A
C174       C1579   1.474       .  S
C176        O178   1.265       .  A
C176        O182   1.260       .  A
C176       C1531   1.473       .  S
C180       C1515   1.473       .  S
In183       O185   2.241       .  S
In183       O186   2.252       .  S
In183       O194   2.206       .  S
In183       O188   2.277       .  S
In183       O190   2.263       .  S
In183       O191   2.259       .  S
In183       O192   2.213       .  S
In183       O195   2.251       .  S
C184        O190   1.265       .  A
C184        O192   1.259       .  A
C184       C1467   1.464       .  S
O185        C193   1.259       .  A
O186        C193   1.262       .  A
C187        O194   1.258       .  A
C187        O188   1.264       .  A
C187       C1496   1.468       .  S
C189        O191   1.260       .  A
C189        O195   1.260       .  A
C189       C1480   1.470       .  S
C193       C1816   1.467       .  S
In196       O198   2.238       .  S
In196       O199   2.262       .  S
In196       O207   2.217       .  S
In196       O201   2.269       .  S
In196       O203   2.280   1_554  S
In196       O204   2.256       .  S
In196       O205   2.235       .  S
In196       O208   2.250       .  S
C197        O203   1.263       .  A
C197        O205   1.258   1_556  A
C197       C1448   1.475       .  S
O198        C206   1.260       .  A
O199        C206   1.263       .  A
C200        O207   1.261       .  A
C200        O201   1.266       .  A
C200       C1499   1.468       .  S
C202        O204   1.263       .  A
C202        O208   1.262       .  A
C202       C1528   1.473       .  S
C206       C1435   1.470       .  S
In209       O211   2.249       .  S
In209       O212   2.242       .  S
In209       O220   2.222       .  S
In209       O214   2.269       .  S
In209       O216   2.216       .  S
In209       O217   2.238       .  S
In209       O218   2.266       .  S
In209       O221   2.249       .  S
C210        O216   1.259       .  A
C210        O218   1.265       .  A
C210       C1400   1.465       .  S
O211        C219   1.260       .  A
O212        C219   1.261       .  A
C213        O220   1.257       .  A
C213        O214   1.265       .  A
C213       C1416   1.468       .  S
C215        O217   1.261       .  A
C215        O221   1.262       .  A
C215       C1563   1.466       .  S
C219       C1384   1.466       .  S
In222       O224   2.232       .  S
In222       O225   2.253       .  S
In222       O233   2.219       .  S
In222       O227   2.272       .  S
In222       O229   2.264   1_545  S
In222       O230   2.244       .  S
In222       O231   2.219   1_545  S
In222       O234   2.236       .  S
C223        O229   1.267       .  A
C223        O231   1.259       .  A
C223       C1355   1.469       .  S
O224        C232   1.258       .  A
O225        C232   1.263       .  A
C226        O233   1.260       .  A
C226        O227   1.267       .  A
C226       C1419   1.473       .  S
C228        O230   1.264       .  A
C228        O234   1.261       .  A
C228       C1368   1.464       .  S
C232       C1784   1.464       .  S
In235       O237   2.236       .  S
In235       O238   2.259       .  S
In235       O246   2.220       .  S
In235       O240   2.256       .  S
In235       O242   2.268       .  S
In235       O243   2.247       .  S
In235       O244   2.221       .  S
In235       O247   2.242       .  S
C236        O242   1.263       .  A
C236        O244   1.256       .  A
C236       C1307   1.464       .  S
O237        C245   1.260       .  A
O238        C245   1.262       .  A
C239        O246   1.262       .  A
C239        O240   1.265       .  A
C239       C1339   1.465       .  S
C241        O243   1.261       .  A
C241        O247   1.259       .  A
C241       C1323   1.463       .  S
C245       C1288   1.468       .  S
In248       O250   2.248       .  S
In248       O251   2.268       .  S
In248       O259   2.206       .  S
In248       O253   2.289       .  S
In248       O255   2.271   1_565  S
In248       O256   2.242       .  S
In248       O257   2.238   1_565  S
In248       O260   2.250   1_565  S
C249        O255   1.265       .  A
C249        O257   1.261       .  A
C249       C1272   1.475       .  S
O250        C258   1.259       .  A
O251        C258   1.261       .  A
C252        O259   1.257       .  A
C252        O253   1.266       .  A
C252       C1336   1.471       .  S
C254        O256   1.263       .  A
C254        O260   1.262   1_565  A
C254       C1371   1.466       .  S
C258       C2027   1.475       .  S
In261       O263   2.240       .  S
In261       O264   2.262       .  S
In261       O272   2.224       .  S
In261       O266   2.275       .  S
In261       O268   2.255       .  S
In261       O269   2.233       .  S
In261       O270   2.279       .  S
In261       O273   2.252       .  S
C262        O268   1.257       .  A
C262        O270   1.264       .  A
C262       C2056   1.480       .  S
O263        C271   1.260       .  A
O264        C271   1.263       .  A
C265        O272   1.260       .  A
C265        O266   1.267       .  A
C265       C1259   1.472       .  S
C267        O269   1.260       .  A
C267        O273   1.264       .  A
C267       C1320   1.465       .  S
C271       C1243   1.471       .  S
In274       O276   2.249       .  S
In274       O277   2.252       .  S
In274       O285   2.219       .  S
In274       O279   2.287       .  S
In274       O281   2.263       .  S
In274       O282   2.255       .  S
In274       O283   2.232       .  S
In274       O286   2.242       .  S
C275        O281   1.266   1_655  A
C275        O283   1.261   1_655  A
C275       C1672   1.473       .  S
O276        C284   1.260       .  A
O277        C284   1.262       .  A
C278        O285   1.258       .  A
C278        O279   1.265       .  A
C278       C1256   1.475       .  S
C280        O282   1.263       .  A
C280        O286   1.261       .  A
C280       C1224   1.469       .  S
C284       C1211   1.469       .  S
In287       O289   2.244       .  S
In287       O290   2.234       .  S
In287       O298   2.194       .  S
In287       O292   2.287       .  S
In287       O294   2.258       .  S
In287       O295   2.237       .  S
In287       O296   2.214       .  S
In287       O299   2.250       .  S
C288        O294   1.267       .  A
C288        O296   1.259       .  A
C288       C1176   1.464       .  S
O289        C297   1.262       .  A
O290        C297   1.262       .  A
C291        O298   1.256       .  A
C291        O292   1.266       .  A
C291       C1192   1.468       .  S
C293        O295   1.261       .  A
C293        O299   1.263       .  A
C293       C1483   1.466       .  S
C297       C1979   1.464       .  S
In300       O302   2.242       .  S
In300       O303   2.258       .  S
In300       O311   2.204       .  S
In300       O305   2.265       .  S
In300       O307   2.247   1_655  S
In300       O308   2.253       .  S
In300       O309   2.216       .  S
In300       O312   2.246       .  S
C301        O307   1.265       .  A
C301        O309   1.262   1_455  A
C301       C1160   1.464       .  S
O302        C310   1.258       .  A
O303        C310   1.263       .  A
C304        O311   1.258       .  A
C304        O305   1.264       .  A
C304       C1195   1.461       .  S
C306        O308   1.263       .  A
C306        O312   1.261       .  A
C306       C1227   1.470       .  S
C310       C1144   1.469       .  S
In313       O315   2.241       .  S
In313       O316   2.261       .  S
In313       O324   2.213       .  S
In313       O318   2.268       .  S
In313       O320   2.273       .  S
In313       O321   2.250       .  S
In313       O322   2.229       .  S
In313       O325   2.247       .  S
C314        O320   1.263   1_545  A
C314        O322   1.257   1_545  A
C314       C1512   1.470       .  S
O315        C323   1.259       .  A
O316        C323   1.263       .  A
C317        O324   1.260       .  A
C317        O318   1.267       .  A
C317       C1128   1.466       .  S
C319        O321   1.263       .  A
C319        O325   1.262       .  A
C319       C1112   1.469       .  S
C323       C1096   1.470       .  S
In326       O328   2.227       .  S
In326       O329   2.246       .  S
In326       O337   2.215       .  S
In326       O331   2.262       .  S
In326       O333   2.230       .  S
In326       O334   2.216       .  S
In326       O335   2.269       .  S
In326       O338   2.247       .  S
C327        O333   1.256       .  A
C327        O335   1.262       .  A
C327       C1291   1.467       .  S
O328        C336   1.258       .  A
O329        C336   1.262       .  A
C330        O337   1.261       .  A
C330        O331   1.266       .  A
C330       C1131   1.467       .  S
C332        O334   1.263       .  A
C332        O338   1.265       .  A
C332       C1080   1.462       .  S
C336       C1739   1.461       .  S
In339       O341   2.243       .  S
In339       O342   2.257       .  S
In339       O350   2.215       .  S
In339       O344   2.259       .  S
In339       O346   2.265   1_545  S
In339       O347   2.257       .  S
In339       O348   2.227   1_545  S
In339       O351   2.250       .  S
C340        O346   1.265       .  A
C340        O348   1.259       .  A
C340       C2008   1.470       .  S
O341        C349   1.259       .  A
O342        C349   1.265       .  A
C343        O350   1.263       .  A
C343        O344   1.267       .  A
C343       C1064   1.468       .  S
C345        O347   1.266       .  A
C345        O351   1.262       .  A
C345       C1115   1.475       .  S
C349       C1051   1.470       .  S
In352       O354   2.232       .  S
In352       O355   2.241       .  S
In352       O363   2.212       .  S
In352       O357   2.257       .  S
In352       O359   2.270       .  S
In352       O360   2.244       .  S
In352       O361   2.225       .  S
In352       O364   2.235       .  S
C353        O359   1.264       .  A
C353        O361   1.256       .  A
C353       C1595   1.468       .  S
O354        C362   1.259       .  A
O355        C362   1.263       .  A
C356        O363   1.261       .  A
C356        O357   1.268       .  A
C356       C1067   1.464       .  S
C358        O360   1.262       .  A
C358        O364   1.261       .  A
C358       C1035   1.463       .  S
C362       C1403   1.461       .  S
In365       O367   2.231       .  S
In365       O368   2.250       .  S
In365       O376   2.227       .  S
In365       O370   2.267       .  S
In365       O372   2.272       .  S
In365       O373   2.247       .  S
In365       O374   2.224       .  S
In365       O377   2.238       .  S
C366        O372   1.263       .  A
C366        O374   1.256       .  A
C366       C1000   1.466       .  S
O367        C375   1.259       .  A
O368        C375   1.261       .  A
C369        O376   1.261       .  A
C369        O370   1.265       .  A
C369       C1019   1.470       .  S
C371        O373   1.261       .  A
C371        O377   1.261       .  A
C371       C1083   1.463       .  S
C375       C1928   1.463       .  S
In378       O380   2.248       .  S
In378       O381   2.260       .  S
In378       O389   2.212       .  S
In378       O383   2.284       .  S
In378       O385   2.267   1_556  S
In378       O386   2.252       .  S
In378       O387   2.226   1_556  S
In378       O390   2.251       .  S
C379        O385   1.266       .  A
C379        O387   1.260       .  A
C379        C968   1.472       .  S
O380        C388   1.260       .  A
O381        C388   1.264       .  A
C382        O389   1.259       .  A
C382        O383   1.266       .  A
C382       C1016   1.473       .  S
C384        O386   1.264       .  A
C384        O390   1.262       .  A
C384        C987   1.472       .  S
C388       C1352   1.473       .  S
In391       O393   2.222       .  S
In391       O394   2.245       .  S
In391       O402   2.231       .  S
In391       O396   2.242       .  S
In391       O398   2.210       .  S
In391       O399   2.237       .  S
In391       O400   2.269       .  S
In391       O403   2.239       .  S
C392        O398   1.258       .  A
C392        O400   1.264       .  A
C392       C1803   1.466       .  S
O393        C401   1.260       .  A
O394        C401   1.265       .  A
C395        O402   1.261       .  A
C395        O396   1.266       .  A
C395        C952   1.466       .  S
C397        O399   1.263       .  A
C397        O403   1.262       .  A
C397        C936   1.464       .  S
C401        C923   1.462       .  S
In404       O406   2.256       .  S
In404       O407   2.257       .  S
In404       O415   2.219       .  S
In404       O409   2.268       .  S
In404       O411   2.273       .  S
In404       O412   2.264       .  S
In404       O413   2.213       .  S
In404       O416   2.242       .  S
C405        O411   1.267   1_556  A
C405        O413   1.260   1_556  A
C405       C2107   1.469       .  S
O406        C414   1.259       .  A
O407        C414   1.261       .  A
C408        O415   1.258       .  A
C408        O409   1.265       .  A
C408        C955   1.468       .  S
C410        O412   1.264       .  A
C410        O416   1.260       .  A
C410        C984   1.472       .  S
C414       C1163   1.471       .  S
In417       O419   2.227       .  S
In417       O420   2.242       .  S
In417       O428   2.224       .  S
In417       O422   2.252       .  S
In417       O424   2.278       .  S
In417       O425   2.245       .  S
In417       O426   2.210       .  S
In417       O429   2.229       .  S
C418        O424   1.264       .  A
C418        O426   1.256       .  A
C418        C891   1.464       .  S
O419        C427   1.260       .  A
O420        C427   1.262       .  A
C421        O428   1.261       .  A
C421        O422   1.266       .  A
C421        C904   1.467       .  S
C423        O425   1.263       .  A
C423        O429   1.261       .  A
C423       C1032   1.461       .  S
C427       C1179   1.460       .  S
In430       O432   2.239       .  S
In430       O433   2.267       .  S
In430       O441   2.227       .  S
In430       O435   2.251       .  S
In430       O437   2.278   1_655  S
In430       O438   2.249       .  S
In430       O439   2.231   1_655  S
In430       O442   2.248       .  S
C431        O437   1.262       .  A
C431        O439   1.257       .  A
C431        C856   1.469       .  S
O432        C440   1.257       .  A
O433        C440   1.262       .  A
C434        O441   1.261       .  A
C434        O435   1.265       .  A
C434        C907   1.465       .  S
C436        O438   1.263       .  A
C436        O442   1.261       .  A
C436        C875   1.469       .  S
C440       C1691   1.470       .  S
In443       O445   2.236       .  S
In443       O446   2.255       .  S
In443       O454   2.222       .  S
In443       O448   2.259       .  S
In443       O450   2.278       .  S
In443       O451   2.240       .  S
In443       O452   2.216       .  S
In443       O455   2.237       .  S
C444        O450   1.265       .  A
C444        O452   1.256       .  A
C444       C1240   1.469       .  S
O445        C453   1.260       .  A
O446        C453   1.263       .  A
C447        O454   1.262       .  A
C447        O448   1.268       .  A
C447        C843   1.469       .  S
C449        O451   1.263       .  A
C449        O455   1.261       .  A
C449        C939   1.463       .  S
C453        C827   1.467       .  S
In456       O458   2.249       .  S
In456       O459   2.268       .  S
In456       O467   2.221       .  S
In456       O461   2.262       .  S
In456       O463   2.279       .  S
In456       O464   2.259       .  S
In456       O465   2.232       .  S
In456       O468   2.239       .  S
C457        O463   1.263   1_655  A
C457        O465   1.256   1_655  A
C457       C1432   1.472       .  S
O458        C466   1.260       .  A
O459        C466   1.263       .  A
C460        O467   1.262       .  A
C460        O461   1.266       .  A
C460        C840   1.470       .  S
C462        O464   1.264       .  A
C462        O468   1.260       .  A
C462        C872   1.469       .  S
C466       C1883   1.476       .  S
In469       O471   2.254       .  S
In469       O472   2.248       .  S
In469       O480   2.209       .  S
In469       O474   2.267       .  S
In469       O476   2.223   1_556  S
In469       O477   2.264       .  S
In469       O478   2.266   1_556  S
In469       O481   2.245       .  S
C470        O476   1.258       .  A
C470        O478   1.264       .  A
C470       C1147   1.468       .  S
O471        C479   1.261       .  A
O472        C479   1.263       .  A
C473        O480   1.261       .  A
C473        O474   1.267       .  A
C473        C808   1.469       .  S
C475        O477   1.264       .  A
C475        O481   1.262       .  A
C475        C795   1.475       .  S
C479       C2120   1.472       .  S
In482       O484   2.254       .  S
In482       O485   2.239       .  S
In482       O493   2.221       .  S
In482       O487   2.272       .  S
In482       O489   2.276       .  S
In482       O490   2.260       .  S
In482       O491   2.228       .  S
In482       O494   2.236       .  S
C483        O489   1.267       .  A
C483        O491   1.259       .  A
C483       C1547   1.475       .  S
O484        C492   1.259       .  A
O485        C492   1.261       .  A
C486        O493   1.258       .  A
C486        O487   1.266       .  A
C486        C811   1.468       .  S
C488        O490   1.262       .  A
C488        O494   1.260       .  A
C488        C779   1.467       .  S
C492       C1003   1.467       .  S
In495       O497   2.248       .  S
In495       O498   2.274       .  S
In495       O506   2.226       .  S
In495       O500   2.266       .  S
In495       O502   2.275       .  S
In495       O503   2.261       .  S
In495       O504   2.246   1_554  S
In495       O507   2.241       .  S
C496        O502   1.261   1_556  A
C496        O504   1.255       .  A
C496       C1099   1.471       .  S
O497        C505   1.258       .  A
O498        C505   1.263       .  A
C499        O506   1.261       .  A
C499        O500   1.265       .  A
C499        C760   1.469       .  S
C501        O503   1.265       .  A
C501        O507   1.260       .  A
C501        C792   1.471       .  S
C505       C1643   1.476       .  S
In508       O510   2.250       .  S
In508       O511   2.235       .  S
In508       O519   2.205       .  S
In508       O513   2.284       .  S
In508       O515   2.260       .  S
In508       O516   2.249       .  S
In508       O517   2.229       .  S
In508       O520   2.234       .  S
C509        O515   1.264       .  A
C509        O517   1.258       .  A
C509        C920   1.465       .  S
O510        C518   1.258       .  A
O511        C518   1.259       .  A
C512        O519   1.257       .  A
C512        O513   1.264       .  A
C512        C763   1.469       .  S
C514        O516   1.262       .  A
C514        O520   1.262       .  A
C514        C747   1.464       .  S
C518       C1464   1.462       .  S
In521       O523   2.241       .  S
In521       O524   2.250       .  S
In521       O532   2.211       .  S
In521       O526   2.281       .  S
In521       O528   2.232       .  S
In521       O529   2.239       .  S
In521       O530   2.250       .  S
In521       O533   2.240       .  S
C522        O528   1.260       .  A
C522        O530   1.264       .  A
C522       C1723   1.465       .  S
O523        C531   1.258       .  A
O524        C531   1.262       .  A
C525        O532   1.258       .  A
C525        O526   1.265       .  A
C525        C728   1.472       .  S
C527        O529   1.263       .  A
C527        O533   1.261       .  A
C527        C744   1.463       .  S
C531       C1304   1.466       .  S
In534       O536   2.247       .  S
In534       O537   2.264       .  S
In534       O545   2.221       .  S
In534       O539   2.262       .  S
In534       O541   2.273   1_565  S
In534       O542   2.268       .  S
In534       O543   2.218   1_565  S
In534       O546   2.253       .  S
C535        O541   1.263       .  A
C535        O543   1.256       .  A
C535       C1768   1.466       .  S
O536        C544   1.259       .  A
O537        C544   1.264       .  A
C538        O545   1.262       .  A
C538        O539   1.267       .  A
C538        C731   1.470       .  S
C540        O542   1.265       .  A
C540        O546   1.262       .  A
C540        C715   1.479       .  S
C544        C971   1.474       .  S
In547       O549   2.250       .  S
In547       O550   2.271       .  S
In547       O558   2.217       .  S
In547       O552   2.250       .  S
In547       O554   2.228       .  S
In547       O555   2.249       .  S
In547       O556   2.265       .  S
In547       O559   2.262       .  S
C548        O554   1.258       .  A
C548        O556   1.261       .  A
C548       C1387   1.466       .  S
O549        C557   1.258       .  A
O550        C557   1.263       .  A
C551        O558   1.263       .  A
C551        O552   1.264       .  A
C551        C699   1.465       .  S
C553        O555   1.260       .  A
C553        O559   1.264       .  A
C553        C683   1.473       .  S
C557       C1611   1.475       .  S
In560       O562   2.254       .  S
In560       O563   2.254       .  S
In560       O571   2.211       .  S
In560       O565   2.264       .  S
In560       O567   2.281   1_545  S
In560       O568   2.266       .  S
In560       O569   2.225       .  S
In560       O572   2.251       .  S
C561        O567   1.263       .  A
C561        O569   1.257   1_565  A
C561       C1208   1.472       .  S
O562        C570   1.258       .  A
O563        C570   1.262       .  A
C564        O571   1.261       .  A
C564        O565   1.266       .  A
C564        C696   1.465       .  S
C566        O568   1.264       .  A
C566        O572   1.262       .  A
C566        C712   1.477       .  S
C570        C859   1.471       .  S
In573       O575   2.248       .  S
In573       O576   2.229       .  S
In573       O584   2.214       .  S
In573       O578   2.264       .  S
In573       O580   2.260       .  S
In573       O581   2.244       .  S
In573       O582   2.237       .  S
In573       O585   2.235       .  S
C574        O580   1.265       .  A
C574        O582   1.260       .  A
C574       C1963   1.470       .  S
O575        C583   1.259       .  A
O576        C583   1.262       .  A
C577        O584   1.258       .  A
C577        O578   1.265       .  A
C577        C664   1.466       .  S
C579        O581   1.263       .  A
C579        O585   1.263       .  A
C579        C776   1.465       .  S
C583        C888   1.463       .  S
In586       O588   2.248       .  S
In586       O589   2.260       .  S
In586       O597   2.229       .  S
In586       O591   2.267       .  S
In586       O593   2.282   1_655  S
In586       O594   2.256       .  S
In586       O595   2.247   1_655  S
In586       O598   2.242       .  S
C587        O593   1.262       .  A
C587        O595   1.257       .  A
C587       C1867   1.477       .  S
O588        C596   1.260       .  A
O589        C596   1.263       .  A
C590        O597   1.260       .  A
C590        O591   1.266       .  A
C590        C667   1.469       .  S
C592        O594   1.263       .  A
C592        O598   1.260       .  A
C592        C648   1.469       .  S
C596       C1451   1.473       .  S
In599       O601   2.245       .  S
In599       O602   2.253       .  S
In599       O610   2.223       .  S
In599       O604   2.253       .  S
In599       O606   2.279   1_455  S
In599       O607   2.253       .  S
In599       O608   2.209   1_455  S
In599       O611   2.236       .  S
C600        O606   1.265       .  A
C600        O608   1.257       .  A
C600       C1048   1.470       .  S
O601        C609   1.261       .  A
O602        C609   1.263       .  A
C603        O610   1.261       .  A
C603        O604   1.267       .  A
C603        C632   1.466       .  S
C605        O607   1.264       .  A
C605        O611   1.261       .  A
C605        C651   1.467       .  S
C609       C1275   1.472       .  S
In612       O614   2.243       .  S
In612       O615   2.258       .  S
In612       O623   2.206       .  S
In612       O617   2.261       .  S
In612       O619   2.217       .  S
In612       O620   2.251       .  S
In612       O621   2.267       .  S
In612       O624   2.251       .  S
C613        O619   1.257       .  A
C613        O621   1.265       .  A
C613        C824   1.465       .  S
O614        C622   1.261       .  A
O615        C622   1.264       .  A
C616        O623   1.261       .  A
C616        O617   1.267       .  A
C616        C635   1.466       .  S
C618        O620   1.264       .  A
C618        O624   1.262       .  A
C618        C680   1.473       .  S
C622       C2075   1.473       .  S
C625        C630   1.381       .  A
C625        C626   1.399       .  A
C625        O631   1.315       .  A
C626        C627   1.398       .  A
C626        H637   1.083       .  S
C627        C636   1.354       .  A
C627        C628   1.381       .  A
C628        C629   1.406       .  A
C628        O634   1.323       .  A
C629        C630   1.406       .  A
C629        H638   1.082       .  S
C630        C633   1.365       .  A
O631        C632   1.329       .  A
C632        C633   1.392       .  A
C633        H639   1.082       .  S
O634        C635   1.332       .  A
C635        C636   1.388       .  A
C636        H640   1.083       .  S
C641        C646   1.381       .  A
C641        C642   1.402       .  A
C641        O647   1.318       .  A
C642        C643   1.401   1_655  A
C642        H653   1.082   1_655  S
C643        C652   1.360       .  A
C643        C644   1.380   1_455  A
C644        C645   1.406       .  A
C644        O650   1.321   1_655  A
C645        C646   1.406       .  A
C645        H654   1.082       .  S
C646        C649   1.365       .  A
O647        C648   1.330       .  A
C648        C649   1.392       .  A
C649        H655   1.082       .  S
O650        C651   1.332       .  A
C651        C652   1.388       .  A
C652        H656   1.082       .  S
C657        C662   1.381       .  A
C657        C658   1.406       .  A
C657        O663   1.322       .  A
C658        C659   1.406       .  A
C658        H669   1.082       .  S
C659        C668   1.367       .  A
C659        C660   1.381       .  A
C660        C661   1.400       .  A
C660        O666   1.316       .  A
C661        C662   1.399       .  A
C661        H670   1.082       .  S
C662        C665   1.356       .  A
O663        C664   1.331       .  A
C664        C665   1.389       .  A
C665        H671   1.083       .  S
O666        C667   1.329       .  A
C667        C668   1.392       .  A
C668        H672   1.082       .  S
C673        C678   1.380       .  A
C673        C674   1.405       .  A
C673        O679   1.320       .  A
C674        C675   1.404       .  A
C674        H685   1.082       .  S
C675        C684   1.364       .  A
C675        C676   1.380       .  A
C676        C677   1.407       .  A
C676        O682   1.321       .  A
C677        C678   1.406       .  A
C677        H686   1.082       .  S
C678        C681   1.365       .  A
O679        C680   1.331       .  A
C680        C681   1.393       .  A
C681        H687   1.082       .  S
O682        C683   1.333       .  A
C683        C684   1.390       .  A
C684        H688   1.082       .  S
C689        C694   1.381       .  A
C689        C690   1.397       .  A
C689        O695   1.312       .  A
C690        C691   1.395       .  A
C690        H701   1.082       .  S
C691        C700   1.354       .  A
C691        C692   1.380       .  A
C692        C693   1.408       .  A
C692        O698   1.322       .  A
C693        C694   1.408       .  A
C693        H702   1.081       .  S
C694        C697   1.369       .  A
O695        C696   1.327       .  A
C696        C697   1.394       .  A
C697        H703   1.082       .  S
O698        C699   1.333       .  A
C699        C700   1.386       .  A
C700        H704   1.082       .  S
C705        C710   1.381       .  A
C705        C706   1.405       .  A
C705        O711   1.320       .  A
C706        C707   1.404   1_545  A
C706        H717   1.084       .  S
C707        C716   1.364       .  A
C707        C708   1.380       .  A
C708        C709   1.408   1_565  A
C708        O714   1.324       .  A
C709        C710   1.408       .  A
C709        H718   1.084       .  S
C710        C713   1.368       .  A
O711        C712   1.331       .  A
C712        C713   1.394       .  A
C713        H719   1.083       .  S
O714        C715   1.334       .  A
C715        C716   1.392       .  A
C716        H720   1.083       .  S
C721        C726   1.380       .  A
C721        C722   1.411       .  A
C721        O727   1.327       .  A
C722        C723   1.411       .  A
C722        H733   1.082       .  S
C723        C732   1.370       .  A
C723        C724   1.381       .  A
C724        C725   1.397       .  A
C724        O730   1.315       .  A
C725        C726   1.397       .  A
C725        H734   1.082       .  S
C726        C729   1.353       .  A
O727        C728   1.335       .  A
C728        C729   1.387       .  A
C729        H735   1.082       .  S
O730        C731   1.328       .  A
C731        C732   1.395       .  A
C732        H736   1.082       .  S
C737        C742   1.381       .  A
C737        C738   1.406       .  A
C737        O743   1.320       .  A
C738        C739   1.405       .  A
C738        H749   1.082       .  S
C739        C748   1.365       .  A
C739        C740   1.381       .  A
C740        C741   1.400       .  A
C740        O746   1.315       .  A
C741        C742   1.399       .  A
C741        H750   1.082       .  S
C742        C745   1.359       .  A
O743        C744   1.331       .  A
C744        C745   1.387       .  A
C745        H751   1.082       .  S
O746        C747   1.328       .  A
C747        C748   1.392       .  A
C748        H752   1.082       .  S
C753        C758   1.381       .  A
C753        C754   1.395       .  A
C753        O759   1.314       .  A
C754        C755   1.395       .  A
C754        H765   1.082       .  S
C755        C764   1.350       .  A
C755        C756   1.380       .  A
C756        C757   1.411       .  A
C756        O762   1.327       .  A
C757        C758   1.411       .  A
C757        H766   1.082       .  S
C758        C761   1.370       .  A
O759        C760   1.327       .  A
C760        C761   1.395       .  A
C761        H767   1.082       .  S
O762        C763   1.335       .  A
C763        C764   1.386       .  A
C764        H768   1.083       .  S
C769        C774   1.381       .  A
C769        C770   1.403       .  A
C769        O775   1.319       .  A
C770        C771   1.403       .  A
C770        H781   1.081       .  S
C771        C780   1.360       .  A
C771        C772   1.381       .  A
C772        C773   1.404       .  A
C772        O778   1.321       .  A
C773        C774   1.403       .  A
C773        H782   1.081       .  S
C774        C777   1.361       .  A
O775        C776   1.330       .  A
C776        C777   1.389       .  A
C777        H783   1.082       .  S
O778        C779   1.331       .  A
C779        C780   1.389       .  A
C780        H784   1.082       .  S
C785        C790   1.380       .  A
C785        C786   1.403       .  A
C785        O791   1.319       .  A
C786        C787   1.402       .  A
C786        H797   1.082       .  S
C787        C796   1.361       .  A
C787        C788   1.380       .  A
C788        C789   1.408       .  A
C788        O794   1.323   1_554  A
C789        C790   1.407       .  A
C789        H798   1.082   1_554  S
C790        C793   1.367       .  A
O791        C792   1.330       .  A
C792        C793   1.392       .  A
C793        H799   1.082       .  S
O794        C795   1.333       .  A
C795        C796   1.390   1_556  A
C796        H800   1.082       .  S
C801        C806   1.380       .  A
C801        C802   1.409       .  A
C801        O807   1.324       .  A
C802        C803   1.408       .  A
C802        H813   1.081       .  S
C803        C812   1.369       .  A
C803        C804   1.380       .  A
C804        C805   1.398       .  A
C804        O810   1.314       .  A
C805        C806   1.397       .  A
C805        H814   1.082       .  S
C806        C809   1.354       .  A
O807        C808   1.333       .  A
C808        C809   1.388       .  A
C809        H815   1.082       .  S
O810        C811   1.328       .  A
C811        C812   1.393       .  A
C812        H816   1.082       .  S
C817        C822   1.380       .  A
C817        C818   1.403       .  A
C817        O823   1.315       .  A
C818        C819   1.401       .  A
C818        H829   1.082       .  S
C819        C828   1.363       .  A
C819        C820   1.380       .  A
C820        C821   1.404       .  A
C820        O826   1.317       .  A
C821        C822   1.402       .  A
C821        H830   1.081       .  S
C822        C825   1.365       .  A
O823        C824   1.330       .  A
C824        C825   1.390       .  A
C825        H831   1.082       .  S
O826        C827   1.330       .  A
C827        C828   1.391       .  A
C828        H832   1.082       .  S
C833        C838   1.380       .  A
C833        C834   1.408       .  A
C833        O839   1.323       .  A
C834        C835   1.407       .  A
C834        H845   1.082       .  S
C835        C844   1.368       .  A
C835        C836   1.380       .  A
C836        C837   1.400       .  A
C836        O842   1.316       .  A
C837        C838   1.399       .  A
C837        H846   1.082       .  S
C838        C841   1.357       .  A
O839        C840   1.333       .  A
C840        C841   1.389       .  A
C841        H847   1.082       .  S
O842        C843   1.329       .  A
C843        C844   1.393       .  A
C844        H848   1.082       .  S
C849        C854   1.380       .  A
C849        C850   1.401       .  A
C849        O855   1.315       .  A
C850        C851   1.399       .  A
C850        H861   1.081       .  S
C851        C860   1.360       .  A
C851        C852   1.380       .  A
C852        C853   1.409       .  A
C852        O858   1.322       .  A
C853        C854   1.407       .  A
C853        H862   1.081       .  S
C854        C857   1.369       .  A
O855        C856   1.328       .  A
C856        C857   1.394       .  A
C857        H863   1.082       .  S
O858        C859   1.334       .  A
C859        C860   1.388       .  A
C860        H864   1.082       .  S
C865        C870   1.380       .  A
C865        C866   1.405       .  A
C865        O871   1.321       .  A
C866        C867   1.404   1_455  A
C866        H877   1.081       .  S
C867        C876   1.363       .  A
C867        C868   1.380       .  A
C868        C869   1.404   1_655  A
C868        O874   1.320       .  A
C869        C870   1.403       .  A
C869        H878   1.081       .  S
C870        C873   1.361       .  A
O871        C872   1.331       .  A
C872        C873   1.391       .  A
C873        H879   1.082       .  S
O874        C875   1.331       .  A
C875        C876   1.391       .  A
C876        H880   1.082       .  S
C881        C886   1.380       .  A
C881        C882   1.409       .  A
C881        O887   1.321       .  A
C882        C883   1.408       .  A
C882        H893   1.082       .  S
C883        C892   1.370       .  A
C883        C884   1.381       .  A
C884        C885   1.395       .  A
C884        O890   1.311       .  A
C885        C886   1.393       .  A
C885        H894   1.082       .  S
C886        C889   1.354       .  A
O887        C888   1.333       .  A
C888        C889   1.384       .  A
C889        H895   1.083       .  S
O890        C891   1.326       .  A
C891        C892   1.394       .  A
C892        H896   1.082       .  S
C897        C902   1.381       .  A
C897        C898   1.404       .  A
C897        O903   1.320       .  A
C898        C899   1.404       .  A
C898        H909   1.082       .  S
C899        C908   1.364       .  A
C899        C900   1.381       .  A
C900        C901   1.401       .  A
C900        O906   1.316       .  A
C901        C902   1.400       .  A
C901        H910   1.083       .  S
C902        C905   1.359       .  A
O903        C904   1.331       .  A
C904        C905   1.390       .  A
C905        H911   1.083       .  S
O906        C907   1.329       .  A
C907        C908   1.391       .  A
C908        H912   1.082       .  S
C913        C918   1.381       .  A
C913        C914   1.403       .  A
C913        O919   1.316       .  A
C914        C915   1.401       .  A
C914        H925   1.082       .  S
C915        C924   1.362       .  A
C915        C916   1.380       .  A
C916        C917   1.403       .  A
C916        O922   1.316       .  A
C917        C918   1.402       .  A
C917        H926   1.082       .  S
C918        C921   1.364       .  A
O919        C920   1.330       .  A
C920        C921   1.390       .  A
C921        H927   1.082       .  S
O922        C923   1.330       .  A
C923        C924   1.389       .  A
C924        H928   1.082       .  S
C929        C934   1.381       .  A
C929        C930   1.402       .  A
C929        O935   1.317       .  A
C930        C931   1.401       .  A
C930        H941   1.082       .  S
C931        C940   1.361       .  A
C931        C932   1.381       .  A
C932        C933   1.403       .  A
C932        O938   1.318       .  A
C933        C934   1.402       .  A
C933        H942   1.082       .  S
C934        C937   1.362       .  A
O935        C936   1.329       .  A
C936        C937   1.390       .  A
C937        H943   1.083       .  S
O938        C939   1.330       .  A
C939        C940   1.389       .  A
C940        H944   1.082       .  S
C945        C950   1.381       .  A
C945        C946   1.402       .  A
C945        O951   1.318       .  A
C946        C947   1.402       .  A
C946        H957   1.082       .  S
C947        C956   1.358       .  A
C947        C948   1.381       .  A
C948        C949   1.403       .  A
C948        O954   1.321       .  A
C949        C950   1.403       .  A
C949        H958   1.081       .  S
C950        C953   1.361       .  A
O951        C952   1.331       .  A
C952        C953   1.389       .  A
C953        H959   1.082       .  S
O954        C955   1.330       .  A
C955        C956   1.391       .  A
C956        H960   1.082       .  S
C961        C966   1.380       .  A
C961        C962   1.406       .  A
C961        O967   1.323       .  A
C962        C963   1.407       .  A
C962        H973   1.082       .  S
C963        C972   1.364       .  A
C963        C964   1.381       .  A
C964        C965   1.402       .  A
C964        O970   1.320       .  A
C965        C966   1.402       .  A
C965        H974   1.082       .  S
C966        C969   1.359       .  A
O967        C968   1.332       .  A
C968        C969   1.390       .  A
C969        H975   1.083       .  S
O970        C971   1.330       .  A
C971        C972   1.394       .  A
C972        H976   1.082       .  S
C977        C982   1.380       .  A
C977        C978   1.404   1_554  A
C977        O983   1.319   1_554  A
C978        C979   1.403       .  A
C978        H989   1.082       .  S
C979        C988   1.363       .  A
C979        C980   1.380   1_556  A
C980        C981   1.408       .  A
C980        O986   1.322       .  A
C981        C982   1.407       .  A
C981        H990   1.082       .  S
C982        C985   1.367       .  A
O983        C984   1.330   1_556  A
C984        C985   1.393       .  A
C985        H991   1.082       .  S
O986        C987   1.333   1_554  A
C987        C988   1.390       .  A
C988        H992   1.082       .  S
C993        C998   1.381       .  A
C993        C994   1.399       .  A
C993        O999   1.314       .  A
C994        C995   1.398       .  A
C994       H1005   1.082       .  S
C995       C1004   1.357       .  A
C995        C996   1.380       .  A
C996        C997   1.408       .  A
C996       O1002   1.322       .  A
C997        C998   1.406       .  A
C997       H1006   1.082       .  S
C998       C1001   1.367       .  A
O999       C1000   1.328       .  A
C1000      C1001   1.392       .  A
C1001      H1007   1.082       .  S
O1002      C1003   1.333       .  A
C1003      C1004   1.387       .  A
C1004      H1008   1.082       .  S
C1009      C1014   1.380       .  A
C1009      C1010   1.411       .  A
C1009      O1015   1.327       .  A
C1010      C1011   1.411       .  A
C1010      H1021   1.082       .  S
C1011      C1020   1.371       .  A
C1011      C1012   1.381       .  A
C1012      C1013   1.397       .  A
C1012      O1018   1.314       .  A
C1013      C1014   1.396       .  A
C1013      H1022   1.082       .  S
C1014      C1017   1.353       .  A
O1015      C1016   1.335       .  A
C1016      C1017   1.387       .  A
C1017      H1023   1.083       .  S
O1018      C1019   1.327       .  A
C1019      C1020   1.396       .  A
C1020      H1024   1.082       .  S
C1025      C1030   1.381       .  A
C1025      C1026   1.401       .  A
C1025      O1031   1.316       .  A
C1026      C1027   1.400       .  A
C1026      H1037   1.082       .  S
C1027      C1036   1.359       .  A
C1027      C1028   1.381       .  A
C1028      C1029   1.404       .  A
C1028      O1034   1.319       .  A
C1029      C1030   1.403       .  A
C1029      H1038   1.082       .  S
C1030      C1033   1.363       .  A
O1031      C1032   1.328       .  A
C1032      C1033   1.390       .  A
C1033      H1039   1.082       .  S
O1034      C1035   1.330       .  A
C1035      C1036   1.389       .  A
C1036      H1040   1.082       .  S
C1041      C1046   1.380       .  A
C1041      C1042   1.408       .  A
C1041      O1047   1.325       .  A
C1042      C1043   1.409       .  A
C1042      H1053   1.082       .  S
C1043      C1052   1.365       .  A
C1043      C1044   1.381       .  A
C1044      C1045   1.399       .  A
C1044      O1050   1.318       .  A
C1045      C1046   1.399       .  A
C1045      H1054   1.082       .  S
C1046      C1049   1.354       .  A
O1047      C1048   1.333       .  A
C1048      C1049   1.388       .  A
C1049      H1055   1.083       .  S
O1050      C1051   1.328       .  A
C1051      C1052   1.394       .  A
C1052      H1056   1.082       .  S
C1057      C1062   1.380       .  A
C1057      C1058   1.408       .  A
C1057      O1063   1.323       .  A
C1058      C1059   1.407       .  A
C1058      H1069   1.082       .  S
C1059      C1068   1.367       .  A
C1059      C1060   1.381       .  A
C1060      C1061   1.398       .  A
C1060      O1066   1.314       .  A
C1061      C1062   1.397       .  A
C1061      H1070   1.082       .  S
C1062      C1065   1.355       .  A
O1063      C1064   1.333       .  A
C1064      C1065   1.388       .  A
C1065      H1071   1.082       .  S
O1066      C1067   1.328       .  A
C1067      C1068   1.392       .  A
C1068      H1072   1.082       .  S
C1073      C1078   1.381       .  A
C1073      C1074   1.406       .  A
C1073      O1079   1.321       .  A
C1074      C1075   1.406       .  A
C1074      H1085   1.082       .  S
C1075      C1084   1.364       .  A
C1075      C1076   1.381       .  A
C1076      C1077   1.398       .  A
C1076      O1082   1.315       .  A
C1077      C1078   1.397       .  A
C1077      H1086   1.082       .  S
C1078      C1081   1.355       .  A
O1079      C1080   1.332       .  A
C1080      C1081   1.386       .  A
C1081      H1087   1.083       .  S
O1082      C1083   1.327       .  A
C1083      C1084   1.392       .  A
C1084      H1088   1.082       .  S
C1089      C1094   1.380       .  A
C1089      C1090   1.404       .  A
C1089      O1095   1.318       .  A
C1090      C1091   1.403       .  A
C1090      H1101   1.082       .  S
C1091      C1100   1.365       .  A
C1091      C1092   1.380       .  A
C1092      C1093   1.406       .  A
C1092      O1098   1.319       .  A
C1093      C1094   1.404       .  A
C1093      H1102   1.082       .  S
C1094      C1097   1.365       .  A
O1095      C1096   1.331       .  A
C1096      C1097   1.391       .  A
C1097      H1103   1.082       .  S
O1098      C1099   1.332       .  A
C1099      C1100   1.391       .  A
C1100      H1104   1.082       .  S
C1105      C1110   1.380       .  A
C1105      C1106   1.405       .  A
C1105      O1111   1.321       .  A
C1106      C1107   1.405   1_565  A
C1106      H1117   1.082   1_565  S
C1107      C1116   1.365       .  A
C1107      C1108   1.380   1_545  A
C1108      C1109   1.406       .  A
C1108      O1114   1.321       .  A
C1109      C1110   1.405       .  A
C1109      H1118   1.082       .  S
C1110      C1113   1.364       .  A
O1111      C1112   1.331       .  A
C1112      C1113   1.391       .  A
C1113      H1119   1.082       .  S
O1114      C1115   1.332   1_565  A
C1115      C1116   1.392       .  A
C1116      H1120   1.082       .  S
C1121      C1126   1.381       .  A
C1121      C1122   1.398       .  A
C1121      O1127   1.313       .  A
C1122      C1123   1.397       .  A
C1122      H1133   1.082       .  S
C1123      C1132   1.355       .  A
C1123      C1124   1.380       .  A
C1124      C1125   1.408       .  A
C1124      O1130   1.323       .  A
C1125      C1126   1.408       .  A
C1125      H1134   1.082       .  S
C1126      C1129   1.369       .  A
O1127      C1128   1.328       .  A
C1128      C1129   1.393       .  A
C1129      H1135   1.082       .  S
O1130      C1131   1.332       .  A
C1131      C1132   1.388       .  A
C1132      H1136   1.082       .  S
C1137      C1142   1.381       .  A
C1137      C1138   1.401       .  A
C1137      O1143   1.319       .  A
C1138      C1139   1.401       .  A
C1138      H1149   1.082       .  S
C1139      C1148   1.358       .  A
C1139      C1140   1.381       .  A
C1140      C1141   1.405       .  A
C1140      O1146   1.322       .  A
C1141      C1142   1.406       .  A
C1141      H1150   1.082       .  S
C1142      C1145   1.363       .  A
O1143      C1144   1.329       .  A
C1144      C1145   1.393       .  A
C1145      H1151   1.082       .  S
O1146      C1147   1.331       .  A
C1147      C1148   1.389       .  A
C1148      H1152   1.082       .  S
C1153      C1158   1.380       .  A
C1153      C1154   1.405       .  A
C1153      O1159   1.321       .  A
C1154      C1155   1.405       .  A
C1154      H1165   1.082       .  S
C1155      C1164   1.364       .  A
C1155      C1156   1.381       .  A
C1156      C1157   1.401       .  A
C1156      O1162   1.318       .  A
C1157      C1158   1.400       .  A
C1157      H1166   1.082       .  S
C1158      C1161   1.357       .  A
O1159      C1160   1.331       .  A
C1160      C1161   1.389       .  A
C1161      H1167   1.082       .  S
O1162      C1163   1.329       .  A
C1163      C1164   1.393       .  A
C1164      H1168   1.082       .  S
C1169      C1174   1.381       .  A
C1169      C1170   1.402       .  A
C1169      O1175   1.315       .  A
C1170      C1171   1.400       .  A
C1170      H1181   1.082       .  S
C1171      C1180   1.361       .  A
C1171      C1172   1.381       .  A
C1172      C1173   1.403       .  A
C1172      O1178   1.316       .  A
C1173      C1174   1.401       .  A
C1173      H1182   1.082       .  S
C1174      C1177   1.364       .  A
O1175      C1176   1.330       .  A
C1176      C1177   1.390       .  A
C1177      H1183   1.082       .  S
O1178      C1179   1.329       .  A
C1179      C1180   1.389       .  A
C1180      H1184   1.083       .  S
C1185      C1190   1.380       .  A
C1185      C1186   1.410       .  A
C1185      O1191   1.326       .  A
C1186      C1187   1.410       .  A
C1186      H1197   1.082       .  S
C1187      C1196   1.369       .  A
C1187      C1188   1.381       .  A
C1188      C1189   1.393       .  A
C1188      O1194   1.310       .  A
C1189      C1190   1.393       .  A
C1189      H1198   1.082       .  S
C1190      C1193   1.348       .  A
O1191      C1192   1.334       .  A
C1192      C1193   1.386       .  A
C1193      H1199   1.083       .  S
O1194      C1195   1.325       .  A
C1195      C1196   1.394       .  A
C1196      H1200   1.082       .  S
C1201      C1206   1.380       .  A
C1201      C1202   1.408       .  A
C1201      O1207   1.325       .  A
C1202      C1203   1.408       .  A
C1202      H1213   1.082       .  S
C1203      C1212   1.365       .  A
C1203      C1204   1.381       .  A
C1204      C1205   1.400       .  A
C1204      O1210   1.318       .  A
C1205      C1206   1.400       .  A
C1205      H1214   1.082       .  S
C1206      C1209   1.356       .  A
O1207      C1208   1.333       .  A
C1208      C1209   1.389       .  A
C1209      H1215   1.082       .  S
O1210      C1211   1.329       .  A
C1211      C1212   1.393       .  A
C1212      H1216   1.082       .  S
C1217      C1222   1.381   1_455  A
C1217      C1218   1.405       .  A
C1217      O1223   1.321       .  A
C1218      C1219   1.404       .  A
C1218      H1229   1.082       .  S
C1219      C1228   1.363       .  A
C1219      C1220   1.381   1_455  A
C1220      C1221   1.403       .  A
C1220      O1226   1.320       .  A
C1221      C1222   1.403       .  A
C1221      H1230   1.082       .  S
C1222      C1225   1.361       .  A
O1223      C1224   1.331       .  A
C1224      C1225   1.390   1_455  A
C1225      H1231   1.082       .  S
O1226      C1227   1.330       .  A
C1227      C1228   1.392   1_655  A
C1228      H1232   1.082       .  S
C1233      C1238   1.381       .  A
C1233      C1234   1.404       .  A
C1233      O1239   1.323       .  A
C1234      C1235   1.405       .  A
C1234      H1245   1.082       .  S
C1235      C1244   1.362       .  A
C1235      C1236   1.381       .  A
C1236      C1237   1.402       .  A
C1236      O1242   1.321       .  A
C1237      C1238   1.402       .  A
C1237      H1246   1.082       .  S
C1238      C1241   1.357       .  A
O1239      C1240   1.331       .  A
C1240      C1241   1.390       .  A
C1241      H1247   1.083       .  S
O1242      C1243   1.330       .  A
C1243      C1244   1.392       .  A
C1244      H1248   1.082       .  S
C1249      C1254   1.379       .  A
C1249      C1250   1.412       .  A
C1249      O1255   1.327       .  A
C1250      C1251   1.411       .  A
C1250      H1261   1.081       .  S
C1251      C1260   1.372       .  A
C1251      C1252   1.380       .  A
C1252      C1253   1.398       .  A
C1252      O1258   1.315       .  A
C1253      C1254   1.397       .  A
C1253      H1262   1.081       .  S
C1254      C1257   1.354       .  A
O1255      C1256   1.335       .  A
C1256      C1257   1.388       .  A
C1257      H1263   1.082       .  S
O1258      C1259   1.328       .  A
C1259      C1260   1.395       .  A
C1260      H1264   1.082       .  S
C1265      C1270   1.380       .  A
C1265      C1266   1.407       .  A
C1265      O1271   1.323       .  A
C1266      C1267   1.406       .  A
C1266      H1277   1.081       .  S
C1267      C1276   1.364       .  A
C1267      C1268   1.380       .  A
C1268      C1269   1.404       .  A
C1268      O1274   1.320       .  A
C1269      C1270   1.404       .  A
C1269      H1278   1.081       .  S
C1270      C1273   1.361       .  A
O1271      C1272   1.332       .  A
C1272      C1273   1.392       .  A
C1273      H1279   1.082       .  S
O1274      C1275   1.330       .  A
C1275      C1276   1.393       .  A
C1276      H1280   1.082       .  S
C1281      C1286   1.381       .  A
C1281      C1282   1.403       .  A
C1281      O1287   1.321       .  A
C1282      C1283   1.403       .  A
C1282      H1293   1.082       .  S
C1283      C1292   1.359       .  A
C1283      C1284   1.381       .  A
C1284      C1285   1.403       .  A
C1284      O1290   1.321       .  A
C1285      C1286   1.403       .  A
C1285      H1294   1.082       .  S
C1286      C1289   1.359       .  A
O1287      C1288   1.331       .  A
C1288      C1289   1.390       .  A
C1289      H1295   1.082       .  S
O1290      C1291   1.330       .  A
C1291      C1292   1.391       .  A
C1292      H1296   1.082       .  S
C1297      C1302   1.381       .  A
C1297      C1298   1.406       .  A
C1297      O1303   1.319       .  A
C1298      C1299   1.404       .  A
C1298      H1309   1.082       .  S
C1299      C1308   1.366       .  A
C1299      C1300   1.381       .  A
C1300      C1301   1.401       .  A
C1300      O1306   1.314       .  A
C1301      C1302   1.399       .  A
C1301      H1310   1.082       .  S
C1302      C1305   1.360       .  A
O1303      C1304   1.331       .  A
C1304      C1305   1.388       .  A
C1305      H1311   1.082       .  S
O1306      C1307   1.329       .  A
C1307      C1308   1.391       .  A
C1308      H1312   1.082       .  S
C1313      C1318   1.381       .  A
C1313      C1314   1.403       .  A
C1313      O1319   1.317       .  A
C1314      C1315   1.401       .  A
C1314      H1325   1.082       .  S
C1315      C1324   1.361       .  A
C1315      C1316   1.381       .  A
C1316      C1317   1.403       .  A
C1316      O1322   1.318       .  A
C1317      C1318   1.402       .  A
C1317      H1326   1.082       .  S
C1318      C1321   1.363       .  A
O1319      C1320   1.330       .  A
C1320      C1321   1.390       .  A
C1321      H1327   1.082       .  S
O1322      C1323   1.329       .  A
C1323      C1324   1.390       .  A
C1324      H1328   1.082       .  S
C1329      C1334   1.380       .  A
C1329      C1330   1.411       .  A
C1329      O1335   1.327       .  A
C1330      C1331   1.411       .  A
C1330      H1341   1.081       .  S
C1331      C1340   1.369       .  A
C1331      C1332   1.381       .  A
C1332      C1333   1.395       .  A
C1332      O1338   1.313       .  A
C1333      C1334   1.395       .  A
C1333      H1342   1.081       .  S
C1334      C1337   1.351       .  A
O1335      C1336   1.335       .  A
C1336      C1337   1.387       .  A
C1337      H1343   1.082       .  S
O1338      C1339   1.326       .  A
C1339      C1340   1.395       .  A
C1340      H1344   1.082       .  S
C1345      C1350   1.380       .  A
C1345      C1346   1.407       .  A
C1345      O1351   1.320       .  A
C1346      C1347   1.405       .  A
C1346      H1357   1.082       .  S
C1347      C1356   1.367       .  A
C1347      C1348   1.380       .  A
C1348      C1349   1.403       .  A
C1348      O1354   1.317       .  A
C1349      C1350   1.402       .  A
C1349      H1358   1.082       .  S
C1350      C1353   1.363       .  A
O1351      C1352   1.333       .  A
C1352      C1353   1.390       .  A
C1353      H1359   1.082       .  S
O1354      C1355   1.330       .  A
C1355      C1356   1.391       .  A
C1356      H1360   1.082       .  S
C1361      C1366   1.380   1_565  A
C1361      C1362   1.403       .  A
C1361      O1367   1.318       .  A
C1362      C1363   1.403       .  A
C1362      H1373   1.081       .  S
C1363      C1372   1.362       .  A
C1363      C1364   1.381   1_565  A
C1364      C1365   1.403       .  A
C1364      O1370   1.319       .  A
C1365      C1366   1.402       .  A
C1365      H1374   1.081       .  S
C1366      C1369   1.362       .  A
O1367      C1368   1.330   1_565  A
C1368      C1369   1.389       .  A
C1369      H1375   1.082       .  S
O1370      C1371   1.330   1_545  A
C1371      C1372   1.390       .  A
C1372      H1376   1.082       .  S
C1377      C1382   1.381       .  A
C1377      C1378   1.399       .  A
C1377      O1383   1.317       .  A
C1378      C1379   1.399       .  A
C1378      H1389   1.082       .  S
C1379      C1388   1.356       .  A
C1379      C1380   1.381       .  A
C1380      C1381   1.406       .  A
C1380      O1386   1.322       .  A
C1381      C1382   1.406       .  A
C1381      H1390   1.082       .  S
C1382      C1385   1.364       .  A
O1383      C1384   1.328       .  A
C1384      C1385   1.392       .  A
C1385      H1391   1.082       .  S
O1386      C1387   1.332       .  A
C1387      C1388   1.388       .  A
C1388      H1392   1.082       .  S
C1393      C1398   1.381       .  A
C1393      C1394   1.399       .  A
C1393      O1399   1.313       .  A
C1394      C1395   1.397       .  A
C1394      H1405   1.082       .  S
C1395      C1404   1.358       .  A
C1395      C1396   1.380       .  A
C1396      C1397   1.406       .  A
C1396      O1402   1.318       .  A
C1397      C1398   1.405       .  A
C1397      H1406   1.082       .  S
C1398      C1401   1.367       .  A
O1399      C1400   1.328       .  A
C1400      C1401   1.392       .  A
C1401      H1407   1.082       .  S
O1402      C1403   1.331       .  A
C1403      C1404   1.386       .  A
C1404      H1408   1.082       .  S
C1409      C1414   1.380       .  A
C1409      C1410   1.400       .  A
C1409      O1415   1.315       .  A
C1410      C1411   1.399       .  A
C1410      H1421   1.082       .  S
C1411      C1420   1.356       .  A
C1411      C1412   1.380       .  A
C1412      C1413   1.408       .  A
C1412      O1418   1.324       .  A
C1413      C1414   1.408       .  A
C1413      H1422   1.082       .  S
C1414      C1417   1.368       .  A
O1415      C1416   1.329       .  A
C1416      C1417   1.393       .  A
C1417      H1423   1.082       .  S
O1418      C1419   1.333       .  A
C1419      C1420   1.390       .  A
C1420      H1424   1.082       .  S
C1425      C1430   1.381       .  A
C1425      C1426   1.404       .  A
C1425      O1431   1.323       .  A
C1426      C1427   1.405       .  A
C1426      H1437   1.082       .  S
C1427      C1436   1.361       .  A
C1427      C1428   1.381       .  A
C1428      C1429   1.403       .  A
C1428      O1434   1.321       .  A
C1429      C1430   1.404       .  A
C1429      H1438   1.082       .  S
C1430      C1433   1.359       .  A
O1431      C1432   1.331       .  A
C1432      C1433   1.391       .  A
C1433      H1439   1.082       .  S
O1434      C1435   1.331       .  A
C1435      C1436   1.391       .  A
C1436      H1440   1.082       .  S
C1441      C1446   1.380       .  A
C1441      C1442   1.407       .  A
C1441      O1447   1.324       .  A
C1442      C1443   1.407       .  A
C1442      H1453   1.082       .  S
C1443      C1452   1.364       .  A
C1443      C1444   1.381       .  A
C1444      C1445   1.403       .  A
C1444      O1450   1.321       .  A
C1445      C1446   1.403       .  A
C1445      H1454   1.082       .  S
C1446      C1449   1.360       .  A
O1447      C1448   1.333       .  A
C1448      C1449   1.391       .  A
C1449      H1455   1.083       .  S
O1450      C1451   1.330       .  A
C1451      C1452   1.393       .  A
C1452      H1456   1.082       .  S
C1457      C1462   1.380       .  A
C1457      C1458   1.407       .  A
C1457      O1463   1.320       .  A
C1458      C1459   1.406       .  A
C1458      H1469   1.082       .  S
C1459      C1468   1.367       .  A
C1459      C1460   1.381       .  A
C1460      C1461   1.398       .  A
C1460      O1466   1.312       .  A
C1461      C1462   1.396       .  A
C1461      H1470   1.082       .  S
C1462      C1465   1.356       .  A
O1463      C1464   1.332       .  A
C1464      C1465   1.386       .  A
C1465      H1471   1.082       .  S
O1466      C1467   1.327       .  A
C1467      C1468   1.393       .  A
C1468      H1472   1.082       .  S
C1473      C1478   1.380       .  A
C1473      C1474   1.406       .  A
C1473      O1479   1.321       .  A
C1474      C1475   1.405       .  A
C1474      H1485   1.082       .  S
C1475      C1484   1.365       .  A
C1475      C1476   1.381       .  A
C1476      C1477   1.402       .  A
C1476      O1482   1.318       .  A
C1477      C1478   1.402       .  A
C1477      H1486   1.082       .  S
C1478      C1481   1.361       .  A
O1479      C1480   1.332       .  A
C1480      C1481   1.389       .  A
C1481      H1487   1.082       .  S
O1482      C1483   1.329       .  A
C1483      C1484   1.391       .  A
C1484      H1488   1.082       .  S
C1489      C1494   1.380       .  A
C1489      C1490   1.410       .  A
C1489      O1495   1.325       .  A
C1490      C1491   1.410       .  A
C1490      H1501   1.082       .  S
C1491      C1500   1.370       .  A
C1491      C1492   1.381       .  A
C1492      C1493   1.396       .  A
C1492      O1498   1.313       .  A
C1493      C1494   1.395       .  A
C1493      H1502   1.082       .  S
C1494      C1497   1.352       .  A
O1495      C1496   1.334       .  A
C1496      C1497   1.386       .  A
C1497      H1503   1.082       .  S
O1498      C1499   1.327       .  A
C1499      C1500   1.395       .  A
C1500      H1504   1.082       .  S
C1505      C1510   1.381       .  A
C1505      C1506   1.405       .  A
C1505      O1511   1.322       .  A
C1506      C1507   1.406       .  A
C1506      H1517   1.082       .  S
C1507      C1516   1.362       .  A
C1507      C1508   1.381       .  A
C1508      C1509   1.403       .  A
C1508      O1514   1.321       .  A
C1509      C1510   1.403       .  A
C1509      H1518   1.082       .  S
C1510      C1513   1.359       .  A
O1511      C1512   1.331       .  A
C1512      C1513   1.391       .  A
C1513      H1519   1.083       .  S
O1514      C1515   1.330       .  A
C1515      C1516   1.393       .  A
C1516      H1520   1.082       .  S
C1521      C1526   1.380       .  A
C1521      C1522   1.406       .  A
C1521      O1527   1.321       .  A
C1522      C1523   1.406       .  A
C1522      H1533   1.082       .  S
C1523      C1532   1.366   1_554  A
C1523      C1524   1.380   1_554  A
C1524      C1525   1.405   1_556  A
C1524      O1530   1.320       .  A
C1525      C1526   1.404       .  A
C1525      H1534   1.082   1_554  S
C1526      C1529   1.363       .  A
O1527      C1528   1.332       .  A
C1528      C1529   1.392       .  A
C1529      H1535   1.082       .  S
O1530      C1531   1.331       .  A
C1531      C1532   1.392       .  A
C1532      H1536   1.082       .  S
C1537      C1542   1.379       .  A
C1537      C1538   1.409       .  A
C1537      O1543   1.322       .  A
C1538      C1539   1.407       .  A
C1538      H1549   1.082       .  S
C1539      C1548   1.370       .  A
C1539      C1540   1.380       .  A
C1540      C1541   1.405       .  A
C1540      O1546   1.318       .  A
C1541      C1542   1.404       .  A
C1541      H1550   1.082       .  S
C1542      C1545   1.366       .  A
O1543      C1544   1.333       .  A
C1544      C1545   1.392       .  A
C1545      H1551   1.082       .  S
O1546      C1547   1.331       .  A
C1547      C1548   1.393       .  A
C1548      H1552   1.082       .  S
C1553      C1558   1.380       .  A
C1553      C1554   1.406       .  A
C1553      O1559   1.321       .  A
C1554      C1555   1.405       .  A
C1554      H1565   1.082       .  S
C1555      C1564   1.365       .  A
C1555      C1556   1.381       .  A
C1556      C1557   1.402       .  A
C1556      O1562   1.318       .  A
C1557      C1558   1.402       .  A
C1557      H1566   1.082       .  S
C1558      C1561   1.362       .  A
O1559      C1560   1.331       .  A
C1560      C1561   1.390       .  A
C1561      H1567   1.082       .  S
O1562      C1563   1.329       .  A
C1563      C1564   1.391       .  A
C1564      H1568   1.082       .  S
C1569      C1574   1.380       .  A
C1569      C1570   1.398       .  A
C1569      O1575   1.314       .  A
C1570      C1571   1.397       .  A
C1570      H1581   1.082       .  S
C1571      C1580   1.356       .  A
C1571      C1572   1.379       .  A
C1572      C1573   1.412       .  A
C1572      O1578   1.326       .  A
C1573      C1574   1.411       .  A
C1573      H1582   1.082       .  S
C1574      C1577   1.372       .  A
O1575      C1576   1.328       .  A
C1576      C1577   1.396       .  A
C1577      H1583   1.082       .  S
O1578      C1579   1.335       .  A
C1579      C1580   1.388       .  A
C1580      H1584   1.082       .  S
C1585      C1590   1.380       .  A
C1585      C1586   1.406       .  A
C1585      O1591   1.319       .  A
C1586      C1587   1.404       .  A
C1586      H1597   1.082       .  S
C1587      C1596   1.366       .  A
C1587      C1588   1.380       .  A
C1588      C1589   1.404       .  A
C1588      O1594   1.317       .  A
C1589      C1590   1.402       .  A
C1589      H1598   1.082       .  S
C1590      C1593   1.364       .  A
O1591      C1592   1.332       .  A
C1592      C1593   1.391       .  A
C1593      H1599   1.082       .  S
O1594      C1595   1.330       .  A
C1595      C1596   1.391       .  A
C1596      H1600   1.082       .  S
C1601      C1606   1.380       .  A
C1601      C1602   1.403       .  A
C1601      O1607   1.316       .  A
C1602      C1603   1.402       .  A
C1602      H1613   1.082       .  S
C1603      C1612   1.364       .  A
C1603      C1604   1.379       .  A
C1604      C1605   1.409       .  A
C1604      O1610   1.321       .  A
C1605      C1606   1.407       .  A
C1605      H1614   1.081       .  S
C1606      C1609   1.370       .  A
O1607      C1608   1.330       .  A
C1608      C1609   1.394       .  A
C1609      H1615   1.082       .  S
O1610      C1611   1.333       .  A
C1611      C1612   1.391       .  A
C1612      H1616   1.082       .  S
C1617      C1622   1.380       .  A
C1617      C1618   1.405       .  A
C1617      O1623   1.319       .  A
C1618      C1619   1.403       .  A
C1618      H1629   1.082       .  S
C1619      C1628   1.365       .  A
C1619      C1620   1.380       .  A
C1620      C1621   1.403       .  A
C1620      O1626   1.317       .  A
C1621      C1622   1.401       .  A
C1621      H1630   1.082       .  S
C1622      C1625   1.362       .  A
O1623      C1624   1.331       .  A
C1624      C1625   1.390       .  A
C1625      H1631   1.082       .  S
O1626      C1627   1.330       .  A
C1627      C1628   1.391       .  A
C1628      H1632   1.082       .  S
C1633      C1638   1.380       .  A
C1633      C1634   1.406       .  A
C1633      O1639   1.324       .  A
C1634      C1635   1.406       .  A
C1634      H1645   1.082       .  S
C1635      C1644   1.363       .  A
C1635      C1636   1.380       .  A
C1636      C1637   1.405       .  A
C1636      O1642   1.323       .  A
C1637      C1638   1.405       .  A
C1637      H1646   1.082       .  S
C1638      C1641   1.362       .  A
O1639      C1640   1.332       .  A
C1640      C1641   1.392       .  A
C1641      H1647   1.083       .  S
O1642      C1643   1.332       .  A
C1643      C1644   1.393       .  A
C1644      H1648   1.082       .  S
C1649      C1654   1.380       .  A
C1649      C1650   1.410       .  A
C1649      O1655   1.324       .  A
C1650      C1651   1.409       .  A
C1650      H1661   1.082       .  S
C1651      C1660   1.371       .  A
C1651      C1652   1.380       .  A
C1652      C1653   1.403       .  A
C1652      O1658   1.318       .  A
C1653      C1654   1.402       .  A
C1653      H1662   1.082       .  S
C1654      C1657   1.361       .  A
O1655      C1656   1.333       .  A
C1656      C1657   1.391       .  A
C1657      H1663   1.082       .  S
O1658      C1659   1.331       .  A
C1659      C1660   1.394       .  A
C1660      H1664   1.082       .  S
C1665      C1670   1.380       .  A
C1665      C1666   1.405       .  A
C1665      O1671   1.322       .  A
C1666      C1667   1.405       .  A
C1666      H1677   1.081       .  S
C1667      C1676   1.363       .  A
C1667      C1668   1.380       .  A
C1668      C1669   1.405       .  A
C1668      O1674   1.322       .  A
C1669      C1670   1.405       .  A
C1669      H1678   1.082       .  S
C1670      C1673   1.362       .  A
O1671      C1672   1.331       .  A
C1672      C1673   1.392       .  A
C1673      H1679   1.082       .  S
O1674      C1675   1.332       .  A
C1675      C1676   1.391       .  A
C1676      H1680   1.082       .  S
C1681      C1686   1.380       .  A
C1681      C1682   1.405       .  A
C1681      O1687   1.317       .  A
C1682      C1683   1.403       .  A
C1682      H1693   1.082       .  S
C1683      C1692   1.366       .  A
C1683      C1684   1.380       .  A
C1684      C1685   1.406       .  A
C1684      O1690   1.318       .  A
C1685      C1686   1.404       .  A
C1685      H1694   1.082       .  S
C1686      C1689   1.368       .  A
O1687      C1688   1.331       .  A
C1688      C1689   1.392       .  A
C1689      H1695   1.082       .  S
O1690      C1691   1.331       .  A
C1691      C1692   1.391       .  A
C1692      H1696   1.082       .  S
C1697      C1702   1.380       .  A
C1697      C1698   1.408       .  A
C1697      O1703   1.323       .  A
C1698      C1699   1.407   1_565  A
C1698      H1709   1.081       .  S
C1699      C1708   1.366       .  A
C1699      C1700   1.381       .  A
C1700      C1701   1.399       .  A
C1700      O1706   1.316       .  A
C1701      C1702   1.398   1_545  A
C1701      H1710   1.081       .  S
C1702      C1705   1.357       .  A
O1703      C1704   1.333       .  A
C1704      C1705   1.387       .  A
C1705      H1711   1.082       .  S
O1706      C1707   1.328       .  A
C1707      C1708   1.392       .  A
C1708      H1712   1.082       .  S
C1713      C1718   1.381       .  A
C1713      C1714   1.403       .  A
C1713      O1719   1.319       .  A
C1714      C1715   1.403       .  A
C1714      H1725   1.082       .  S
C1715      C1724   1.360       .  A
C1715      C1716   1.381       .  A
C1716      C1717   1.401       .  A
C1716      O1722   1.318       .  A
C1717      C1718   1.401       .  A
C1717      H1726   1.082       .  S
C1718      C1721   1.358       .  A
O1719      C1720   1.330       .  A
C1720      C1721   1.389       .  A
C1721      H1727   1.082       .  S
O1722      C1723   1.329       .  A
C1723      C1724   1.391       .  A
C1724      H1728   1.082       .  S
C1729      C1734   1.381       .  A
C1729      C1730   1.402       .  A
C1729      O1735   1.320       .  A
C1730      C1731   1.402       .  A
C1730      H1741   1.081       .  S
C1731      C1740   1.359       .  A
C1731      C1732   1.381       .  A
C1732      C1733   1.400       .  A
C1732      O1738   1.317       .  A
C1733      C1734   1.400       .  A
C1733      H1742   1.081       .  S
C1734      C1737   1.356       .  A
O1735      C1736   1.329       .  A
C1736      C1737   1.390       .  A
C1737      H1743   1.082       .  S
O1738      C1739   1.328       .  A
C1739      C1740   1.390       .  A
C1740      H1744   1.082       .  S
C1745      C1750   1.380       .  A
C1745      C1746   1.410       .  A
C1745      O1751   1.325       .  A
C1746      C1747   1.410       .  A
C1746      H1757   1.081       .  S
C1747      C1756   1.370       .  A
C1747      C1748   1.380       .  A
C1748      C1749   1.400       .  A
C1748      O1754   1.317       .  A
C1749      C1750   1.399       .  A
C1749      H1758   1.081       .  S
C1750      C1753   1.357       .  A
O1751      C1752   1.334       .  A
C1752      C1753   1.388       .  A
C1753      H1759   1.082       .  S
O1754      C1755   1.329       .  A
C1755      C1756   1.395       .  A
C1756      H1760   1.082       .  S
C1761      C1766   1.381       .  A
C1761      C1762   1.403       .  A
C1761      O1767   1.322       .  A
C1762      C1763   1.404       .  A
C1762      H1773   1.082       .  S
C1763      C1772   1.360       .  A
C1763      C1764   1.381       .  A
C1764      C1765   1.400       .  A
C1764      O1770   1.318       .  A
C1765      C1766   1.401       .  A
C1765      H1774   1.082       .  S
C1766      C1769   1.356       .  A
O1767      C1768   1.331       .  A
C1768      C1769   1.389       .  A
C1769      H1775   1.083       .  S
O1770      C1771   1.329       .  A
C1771      C1772   1.390       .  A
C1772      H1776   1.082       .  S
C1777      C1782   1.380       .  A
C1777      C1778   1.406       .  A
C1777      O1783   1.318       .  A
C1778      C1779   1.405       .  A
C1778      H1789   1.082       .  S
C1779      C1788   1.368       .  A
C1779      C1780   1.380       .  A
C1780      C1781   1.401       .  A
C1780      O1786   1.314       .  A
C1781      C1782   1.398       .  A
C1781      H1790   1.082       .  S
C1782      C1785   1.361       .  A
O1783      C1784   1.331       .  A
C1784      C1785   1.388       .  A
C1785      H1791   1.083       .  S
O1786      C1787   1.328       .  A
C1787      C1788   1.393       .  A
C1788      H1792   1.082       .  S
C1793      C1798   1.381       .  A
C1793      C1794   1.398       .  A
C1793      O1799   1.316       .  A
C1794      C1795   1.398       .  A
C1794      H1805   1.082       .  S
C1795      C1804   1.354       .  A
C1795      C1796   1.381       .  A
C1796      C1797   1.407       .  A
C1796      O1802   1.323       .  A
C1797      C1798   1.407       .  A
C1797      H1806   1.082       .  S
C1798      C1801   1.364       .  A
O1799      C1800   1.328       .  A
C1800      C1801   1.393       .  A
C1801      H1807   1.082       .  S
O1802      C1803   1.332       .  A
C1803      C1804   1.387       .  A
C1804      H1808   1.082       .  S
C1809      C1814   1.380       .  A
C1809      C1810   1.406       .  A
C1809      O1815   1.319       .  A
C1810      C1811   1.405       .  A
C1810      H1821   1.082       .  S
C1811      C1820   1.367       .  A
C1811      C1812   1.380       .  A
C1812      C1813   1.403       .  A
C1812      O1818   1.316       .  A
C1813      C1814   1.401       .  A
C1813      H1822   1.082       .  S
C1814      C1817   1.362       .  A
O1815      C1816   1.331       .  A
C1816      C1817   1.390       .  A
C1817      H1823   1.082       .  S
O1818      C1819   1.330       .  A
C1819      C1820   1.392       .  A
C1820      H1824   1.082       .  S
C1825      C1830   1.381       .  A
C1825      C1826   1.403       .  A
C1825      O1831   1.320       .  A
C1826      C1827   1.402       .  A
C1826      H1837   1.082       .  S
C1827      C1836   1.361       .  A
C1827      C1828   1.380       .  A
C1828      C1829   1.408       .  A
C1828      O1834   1.323       .  A
C1829      C1830   1.408       .  A
C1829      H1838   1.082       .  S
C1830      C1833   1.367       .  A
O1831      C1832   1.330       .  A
C1832      C1833   1.394       .  A
C1833      H1839   1.082       .  S
O1834      C1835   1.333       .  A
C1835      C1836   1.389       .  A
C1836      H1840   1.082       .  S
C1841      C1846   1.381       .  A
C1841      C1842   1.396       .  A
C1841      O1847   1.312       .  A
C1842      C1843   1.395       .  A
C1842      H1853   1.082       .  S
C1843      C1852   1.351       .  A
C1843      C1844   1.380       .  A
C1844      C1845   1.409       .  A
C1844      O1850   1.325       .  A
C1845      C1846   1.408       .  A
C1845      H1854   1.082       .  S
C1846      C1849   1.368       .  A
O1847      C1848   1.327       .  A
C1848      C1849   1.393       .  A
C1849      H1855   1.082       .  S
O1850      C1851   1.333       .  A
C1851      C1852   1.387       .  A
C1852      H1856   1.082       .  S
C1857      C1862   1.380       .  A
C1857      C1858   1.405       .  A
C1857      O1863   1.322       .  A
C1858      C1859   1.406       .  A
C1858      H1869   1.082       .  S
C1859      C1868   1.363       .  A
C1859      C1860   1.380       .  A
C1860      C1861   1.406       .  A
C1860      O1866   1.323       .  A
C1861      C1862   1.406       .  A
C1861      H1870   1.082       .  S
C1862      C1865   1.364       .  A
O1863      C1864   1.332       .  A
C1864      C1865   1.392       .  A
C1865      H1871   1.082       .  S
O1866      C1867   1.332       .  A
C1867      C1868   1.393       .  A
C1868      H1872   1.082       .  S
C1873      C1878   1.380       .  A
C1873      C1874   1.406       .  A
C1873      O1879   1.323       .  A
C1874      C1875   1.406       .  A
C1874      H1885   1.082       .  S
C1875      C1884   1.363       .  A
C1875      C1876   1.380       .  A
C1876      C1877   1.405       .  A
C1876      O1882   1.323       .  A
C1877      C1878   1.406       .  A
C1877      H1886   1.082       .  S
C1878      C1881   1.363       .  A
O1879      C1880   1.332       .  A
C1880      C1881   1.393       .  A
C1881      H1887   1.082       .  S
O1882      C1883   1.332       .  A
C1883      C1884   1.392       .  A
C1884      H1888   1.082       .  S
C1889      C1894   1.380   1_554  A
C1889      C1890   1.404       .  A
C1889      O1895   1.319       .  A
C1890      C1891   1.403       .  A
C1890      H1901   1.082       .  S
C1891      C1900   1.362       .  A
C1891      C1892   1.380   1_554  A
C1892      C1893   1.405       .  A
C1892      O1898   1.320       .  A
C1893      C1894   1.404       .  A
C1893      H1902   1.082       .  S
C1894      C1897   1.364       .  A
O1895      C1896   1.330   1_554  A
C1896      C1897   1.391       .  A
C1897      H1903   1.082       .  S
O1898      C1899   1.331   1_556  A
C1899      C1900   1.390       .  A
C1900      H1904   1.082       .  S
C1905      C1910   1.381       .  A
C1905      C1906   1.401       .  A
C1905      O1911   1.317       .  A
C1906      C1907   1.401       .  A
C1906      H1917   1.082       .  S
C1907      C1916   1.359       .  A
C1907      C1908   1.381       .  A
C1908      C1909   1.405       .  A
C1908      O1914   1.322       .  A
C1909      C1910   1.405       .  A
C1909      H1918   1.082       .  S
C1910      C1913   1.363       .  A
O1911      C1912   1.328       .  A
C1912      C1913   1.392       .  A
C1913      H1919   1.082       .  S
O1914      C1915   1.331       .  A
C1915      C1916   1.390       .  A
C1916      H1920   1.082       .  S
C1921      C1926   1.381       .  A
C1921      C1922   1.402       .  A
C1921      O1927   1.316       .  A
C1922      C1923   1.401       .  A
C1922      H1933   1.082       .  S
C1923      C1932   1.364       .  A
C1923      C1924   1.380       .  A
C1924      C1925   1.404       .  A
C1924      O1930   1.316       .  A
C1925      C1926   1.402       .  A
C1925      H1934   1.082       .  S
C1926      C1929   1.363       .  A
O1927      C1928   1.329       .  A
C1928      C1929   1.390       .  A
C1929      H1935   1.082       .  S
O1930      C1931   1.331       .  A
C1931      C1932   1.389       .  A
C1932      H1936   1.082       .  S
C1937      C1942   1.380       .  A
C1937      C1938   1.410       .  A
C1937      O1943   1.324       .  A
C1938      C1939   1.409       .  A
C1938      H1949   1.082       .  S
C1939      C1948   1.371       .  A
C1939      C1940   1.380       .  A
C1940      C1941   1.397       .  A
C1940      O1946   1.313       .  A
C1941      C1942   1.396       .  A
C1941      H1950   1.082       .  S
C1942      C1945   1.354       .  A
O1943      C1944   1.333       .  A
C1944      C1945   1.387       .  A
C1945      H1951   1.082       .  S
O1946      C1947   1.327       .  A
C1947      C1948   1.394       .  A
C1948      H1952   1.082       .  S
C1953      C1958   1.380       .  A
C1953      C1954   1.405       .  A
C1953      O1959   1.320       .  A
C1954      C1955   1.404       .  A
C1954      H1965   1.082       .  S
C1955      C1964   1.365       .  A
C1955      C1956   1.381       .  A
C1956      C1957   1.402       .  A
C1956      O1962   1.318       .  A
C1957      C1958   1.401       .  A
C1957      H1966   1.082       .  S
C1958      C1961   1.361       .  A
O1959      C1960   1.332       .  A
C1960      C1961   1.389       .  A
C1961      H1967   1.082       .  S
O1962      C1963   1.330       .  A
C1963      C1964   1.391       .  A
C1964      H1968   1.082       .  S
C1969      C1974   1.381       .  A
C1969      C1970   1.405       .  A
C1969      O1975   1.321       .  A
C1970      C1971   1.405       .  A
C1970      H1981   1.082       .  S
C1971      C1980   1.364       .  A
C1971      C1972   1.381       .  A
C1972      C1973   1.399       .  A
C1972      O1978   1.316       .  A
C1973      C1974   1.399       .  A
C1973      H1982   1.082       .  S
C1974      C1977   1.357       .  A
O1975      C1976   1.331       .  A
C1976      C1977   1.388       .  A
C1977      H1983   1.083       .  S
O1978      C1979   1.328       .  A
C1979      C1980   1.392       .  A
C1980      H1984   1.082       .  S
C1985      C1990   1.381       .  A
C1985      C1986   1.400       .  A
C1985      O1991   1.315       .  A
C1986      C1987   1.398       .  A
C1986      H1997   1.082       .  S
C1987      C1996   1.358       .  A
C1987      C1988   1.381       .  A
C1988      C1989   1.406       .  A
C1988      O1994   1.320       .  A
C1989      C1990   1.406       .  A
C1989      H1998   1.082       .  S
C1990      C1993   1.367       .  A
O1991      C1992   1.328       .  A
C1992      C1993   1.393       .  A
C1993      H1999   1.082       .  S
O1994      C1995   1.331       .  A
C1995      C1996   1.387       .  A
C1996      H2000   1.082       .  S
C2001      C2006   1.380       .  A
C2001      C2002   1.405       .  A
C2001      O2007   1.322       .  A
C2002      C2003   1.406       .  A
C2002      H2013   1.082       .  S
C2003      C2012   1.364       .  A
C2003      C2004   1.381       .  A
C2004      C2005   1.403       .  A
C2004      O2010   1.319       .  A
C2005      C2006   1.402       .  A
C2005      H2014   1.082       .  S
C2006      C2009   1.359       .  A
O2007      C2008   1.331       .  A
C2008      C2009   1.391       .  A
C2009      H2015   1.083       .  S
O2010      C2011   1.330       .  A
C2011      C2012   1.392       .  A
C2012      H2016   1.082       .  S
C2017      C2022   1.380       .  A
C2017      C2018   1.406       .  A
C2017      O2023   1.324       .  A
C2018      C2019   1.406       .  A
C2018      H2029   1.082       .  S
C2019      C2028   1.363       .  A
C2019      C2020   1.380       .  A
C2020      C2021   1.405       .  A
C2020      O2026   1.322       .  A
C2021      C2022   1.405       .  A
C2021      H2030   1.082       .  S
C2022      C2025   1.362       .  A
O2023      C2024   1.332       .  A
C2024      C2025   1.392       .  A
C2025      H2031   1.082       .  S
O2026      C2027   1.332       .  A
C2027      C2028   1.392       .  A
C2028      H2032   1.082       .  S
C2033      C2038   1.379       .  A
C2033      C2034   1.413       .  A
C2033      O2039   1.326       .  A
C2034      C2035   1.412       .  A
C2034      H2045   1.082       .  S
C2035      C2044   1.374       .  A
C2035      C2036   1.380       .  A
C2036      C2037   1.397       .  A
C2036      O2042   1.313       .  A
C2037      C2038   1.395       .  A
C2037      H2046   1.082       .  S
C2038      C2041   1.353       .  A
O2039      C2040   1.335       .  A
C2040      C2041   1.386       .  A
C2041      H2047   1.082       .  S
O2042      C2043   1.327       .  A
C2043      C2044   1.397       .  A
C2044      H2048   1.082       .  S
C2049      C2054   1.379       .  A
C2049      C2050   1.409       .  A
C2049      O2055   1.323       .  A
C2050      C2051   1.408       .  A
C2050      H2061   1.081       .  S
C2051      C2060   1.369       .  A
C2051      C2052   1.379       .  A
C2052      C2053   1.408       .  A
C2052      O2058   1.322       .  A
C2053      C2054   1.406       .  A
C2053      H2062   1.081       .  S
C2054      C2057   1.368       .  A
O2055      C2056   1.334       .  A
C2056      C2057   1.392       .  A
C2057      H2063   1.082       .  S
O2058      C2059   1.333       .  A
C2059      C2060   1.394       .  A
C2060      H2064   1.082       .  S
C2065      C2070   1.381       .  A
C2065      C2066   1.405       .  A
C2065      O2071   1.322       .  A
C2066      C2067   1.405       .  A
C2066      H2077   1.083       .  S
C2067      C2076   1.363       .  A
C2067      C2068   1.381       .  A
C2068      C2069   1.404       .  A
C2068      O2074   1.321       .  A
C2069      C2070   1.404       .  A
C2069      H2078   1.083       .  S
C2070      C2073   1.362       .  A
O2071      C2072   1.331       .  A
C2072      C2073   1.392       .  A
C2073      H2079   1.083       .  S
O2074      C2075   1.331       .  A
C2075      C2076   1.392       .  A
C2076      H2080   1.083       .  S
C2081      C2086   1.380       .  A
C2081      C2082   1.404       .  A
C2081      O2087   1.320       .  A
C2082      C2083   1.404       .  A
C2082      H2093   1.081       .  S
C2083      C2092   1.364       .  A
C2083      C2084   1.380       .  A
C2084      C2085   1.407       .  A
C2084      O2090   1.321       .  A
C2085      C2086   1.406       .  A
C2085      H2094   1.081       .  S
C2086      C2089   1.365       .  A
O2087      C2088   1.330       .  A
C2088      C2089   1.392       .  A
C2089      H2095   1.082       .  S
O2090      C2091   1.333       .  A
C2091      C2092   1.391       .  A
C2092      H2096   1.082       .  S
C2097      C2102   1.379       .  A
C2097      C2098   1.410       .  A
C2097      O2103   1.322       .  A
C2098      C2099   1.408       .  A
C2098      H2109   1.082       .  S
C2099      C2108   1.371       .  A
C2099      C2100   1.380       .  A
C2100      C2101   1.400       .  A
C2100      O2106   1.314       .  A
C2101      C2102   1.398       .  A
C2101      H2110   1.081       .  S
C2102      C2105   1.360       .  A
O2103      C2104   1.334       .  A
C2104      C2105   1.388       .  A
C2105      H2111   1.082       .  S
O2106      C2107   1.328       .  A
C2107      C2108   1.394       .  A
C2108      H2112   1.082       .  S
C2113      C2118   1.380       .  A
C2113      C2114   1.401       .  A
C2113      O2119   1.318       .  A
C2114      C2115   1.401       .  A
C2114      H2125   1.082       .  S
C2115      C2124   1.359       .  A
C2115      C2116   1.380       .  A
C2116      C2117   1.410       .  A
C2116      O2122   1.325       .  A
C2117      C2118   1.409       .  A
C2117      H2126   1.082       .  S
C2118      C2121   1.368       .  A
O2119      C2120   1.328       .  A
C2120      C2121   1.395       .  A
C2121      H2127   1.082       .  S
O2122      C2123   1.334       .  A
C2123      C2124   1.390       .  A
C2124      H2128   1.082       .  S
C2129      C2134   1.380   1_655  A
C2129      C2130   1.405       .  A
C2129      O2135   1.321       .  A
C2130      C2131   1.405       .  A
C2130      H2141   1.082       .  S
C2131      C2140   1.364       .  A
C2131      C2132   1.380   1_655  A
C2132      C2133   1.406       .  A
C2132      O2138   1.321       .  A
C2133      C2134   1.405       .  A
C2133      H2142   1.082       .  S
C2134      C2137   1.365       .  A
O2135      C2136   1.331       .  A
C2136      C2137   1.391   1_655  A
C2137      H2143   1.082       .  S
O2138      C2139   1.332       .  A
C2139      C2140   1.392   1_455  A
C2140      H2144   1.082       .  S
C2145      C2150   1.380       .  A
C2145      C2146   1.399       .  A
C2145      O2151   1.315       .  A
C2146      C2147   1.398       .  A
C2146      H2157   1.082       .  S
C2147      C2156   1.355       .  A
C2147      C2148   1.380       .  A
C2148      C2149   1.412       .  A
C2148      O2154   1.327       .  A
C2149      C2150   1.412       .  A
C2149      H2158   1.082       .  S
C2150      C2153   1.373       .  A
O2151      C2152   1.328       .  A
C2152      C2153   1.396       .  A
C2153      H2159   1.082       .  S
O2154      C2155   1.335       .  A
C2155      C2156   1.388       .  A
C2156      H2160   1.083       .  S
