geometry optimzed in LAMMPS
_audit_creation_date              2020-12-01 
_audit_creation_method            'lammps2cif' 
_symmetry_space_group_name_H-M    'P1' 
_symmetry_Int_Tables_number       1 
_symmetry_cell_setting            triclinic 
loop_ 
_symmetry_equiv_pos_as_xyz 
  x,y,z 
_cell_length_a                    32.00537195 
_cell_length_b                    31.894386253846026 
_cell_length_c                    92.86434542008087 
_cell_angle_alpha                 90.03629299420255 
_cell_angle_beta                  90.01348277647067 
_cell_angle_gamma                 120.07073117982543 
loop_ 
_atom_site_label 
_atom_site_type_symbol 
_atom_site_fract_x 
_atom_site_fract_y 
_atom_site_fract_z 
_atom_site_charge 
O1          O  0.95109476  0.78128947  0.25707631    -0.71200
O2          O  0.95412029  0.65852874  0.26147410    -0.72200
O3          O  0.97191785  0.73662715  0.28021720    -0.60800
O4          O  0.93511199  0.70437250  0.23830934    -0.69200
O5          O  0.01299816  0.74329202  0.23255363    -0.68800
O6          O  0.04932085  0.77478716  0.27393260    -0.60000
O7          O  0.03171676  0.69609775  0.25540119    -0.72600
O8          O  0.02876073  0.82080679  0.25106291    -0.71300
Cu9        Cu  0.95035449  0.71880339  0.25950454     1.04600
Cu10       Cu  0.03346996  0.76008015  0.25304844     1.04300
C11         C  0.98906129  0.82017014  0.25337842     0.95000
C12         C  0.99277733  0.65762168  0.25894155     0.94100
C13         C  0.01666215  0.76133516  0.28354261     0.86300
C14         C  0.96870205  0.71913963  0.22889768     0.92500
O15         O  0.14260600  0.97986518  0.41572092    -0.71200
O16         O  0.26563647  0.97761297  0.41193059    -0.72200
O17         O  0.18870540  0.95976928  0.39281993    -0.60800
O18         O  0.21829500  0.99610775  0.43491883    -0.69200
O19         O  0.17965735  0.91786632  0.44054007    -0.68800
O20         O  0.15051737  0.88201122  0.39900144    -0.60000
O21         O  0.22792562  0.89960049  0.41783542    -0.72600
O22         O  0.10336330  0.90185165  0.42165155    -0.71300
Cu23       Cu  0.20523980  0.98109073  0.41362244     1.04600
Cu24       Cu  0.16407662  0.89758536  0.41994854     1.04300
C25         C  0.10384387  0.94157236  0.41929972     0.95000
C26         C  0.26635528  0.93865965  0.41436291     0.94100
C27         C  0.16440172  0.91490780  0.38941649     0.86300
C28         C  0.20305498  0.96226469  0.44430380     0.92500
O29         O  0.95487510  0.15911232  0.25736666    -0.71200
O30         O  0.95212543  0.28227718  0.26100791    -0.72200
O31         O  0.93405307  0.20501629  0.28014342    -0.60800
O32         O  0.97117655  0.23491460  0.23819922    -0.69200
O33         O  0.89331120  0.19594332  0.23238269    -0.68800
O34         O  0.85669884  0.16668238  0.27376844    -0.60000
O35         O  0.87455398  0.24452055  0.25487766    -0.72600
O36         O  0.87725771  0.11950171  0.25126315    -0.71300
Cu37       Cu  0.95577106  0.22178559  0.25941788     1.04600
Cu38       Cu  0.87269291  0.18036532  0.25288102     1.04300
C39         C  0.91689469  0.12014636  0.25370909     0.95000
C40         C  0.91347976  0.28311568  0.25837304     0.94100
C41         C  0.88927928  0.18037880  0.28342048     0.86300
C42         C  0.93763322  0.21948924  0.22874678     0.92500
O43         O  0.75121856  0.06246717  0.39825477    -0.71200
O44         O  0.72384612  0.03042620  0.44003927    -0.72200
O45         O  0.80010745  0.04623039  0.42115097    -0.60800
O46         O  0.67374127  0.04493846  0.41710753    -0.69200
O47         O  0.63744327  0.96647517  0.41178923    -0.68800
O48         O  0.76202681  0.96765975  0.41587985    -0.60000
O49         O  0.68638846  0.95170765  0.43503104    -0.72600
O50         O  0.71442383  0.98417590  0.39270584    -0.71300
Cu51       Cu  0.73847154  0.04879791  0.41930411     1.04600
Cu52       Cu  0.69868317  0.96474890  0.41364692     1.04300
C53         C  0.73793142  0.02872706  0.38895483     0.95000
C54         C  0.70124722  0.98637622  0.44414084     0.94100
C55         C  0.80046670  0.00674948  0.41915653     0.86300
C56         C  0.63571734  0.00503794  0.41393520     0.92500
O57         O  0.14047031  0.97778948  0.59078594    -0.71200
O58         O  0.26290703  0.97383079  0.59390549    -0.72200
O59         O  0.20729066  0.99606604  0.61338370    -0.60800
O60         O  0.19676217  0.95801285  0.57122275    -0.69200
O61         O  0.23859209  0.03607017  0.56548121    -0.68800
O62         O  0.24926965  0.07351327  0.60700207    -0.60000
O63         O  0.30577060  0.05146186  0.58777899    -0.72600
O64         O  0.18116754  0.05560586  0.58471635    -0.71300
Cu65       Cu  0.20047996  0.97373076  0.59256007     1.04600
Cu66       Cu  0.24526535  0.05692332  0.58605223     1.04300
C67         C  0.14122567  0.01676078  0.58727064     0.95000
C68         C  0.30337906  0.01140300  0.59116185     0.94100
C69         C  0.22947868  0.04109908  0.61669138     0.86300
C70         C  0.21605695  0.99161615  0.56177456     0.92500
O71         O  0.25467735  0.17512038  0.73367264    -0.71200
O72         O  0.24227345  0.19845628  0.77536433    -0.72200
O73         O  0.18678618  0.12200140  0.75573516    -0.60800
O74         O  0.30942170  0.25307147  0.75344376    -0.69200
O75         O  0.26518998  0.28636885  0.74757552    -0.68800
O76         O  0.14451428  0.15749028  0.74992570    -0.60000
O77         O  0.19896832  0.23309646  0.76984249    -0.72600
O78         O  0.21127986  0.20914112  0.72760183    -0.71300
Cu79       Cu  0.24992338  0.18602178  0.75472519     1.04600
Cu80       Cu  0.20357948  0.22279776  0.74849848     1.04300
C81         C  0.23430306  0.18745104  0.72410885     0.95000
C82         C  0.21872030  0.21907902  0.77918482     0.94100
C83         C  0.14635711  0.11970352  0.75325468     0.86300
C84         C  0.30600329  0.29037919  0.75040678     0.92500
O85         O  0.66857757  0.91280633  0.56525208    -0.71200
O86         O  0.65822871  0.87546075  0.60675066    -0.72200
O87         O  0.59979904  0.89402137  0.58732656    -0.60800
O88         O  0.72785387  0.89662711  0.58470370    -0.69200
O89         O  0.76545400  0.97441704  0.59085978    -0.68800
O90         O  0.63956120  0.97172839  0.59356533    -0.60000
O91         O  0.69710140  0.95296012  0.61322542    -0.72600
O92         O  0.70721865  0.99086816  0.57111612    -0.71300
Cu93       Cu  0.66218014  0.89196128  0.58580994     1.04600
Cu94       Cu  0.70361308  0.97518509  0.59242843     1.04300
C95         C  0.68939501  0.95728173  0.56161636     0.95000
C96         C  0.67645900  0.90796406  0.61648507     0.94100
C97         C  0.60009354  0.93308169  0.59071954     0.86300
C98         C  0.76674287  0.93645039  0.58736474     0.92500
O99         O  0.63724745  0.66529799  0.74742477    -0.71200
O100        O  0.76723698  0.78464234  0.74886580    -0.72200
O101        O  0.70787261  0.71264904  0.76918662    -0.60800
O102        O  0.69586529  0.73884387  0.72708521    -0.69200
O103        O  0.66159866  0.78161848  0.73365660    -0.68800
O104        O  0.67378963  0.75617160  0.77513676    -0.60000
O105        O  0.73416892  0.82881718  0.75512944    -0.72600
O106        O  0.60200175  0.70735408  0.75378570    -0.71300
Cu107      Cu  0.70317819  0.72381606  0.74788452     1.04600
Cu108      Cu  0.66663304  0.76999862  0.75461400     1.04300
C109        C  0.59944658  0.66706770  0.75062049     0.95000
C110        C  0.77140521  0.82523972  0.75231096     0.94100
C111        C  0.69253189  0.73065073  0.77872156     0.86300
C112        C  0.67720626  0.76494993  0.72386325     0.92500
O113        O  0.72802318  0.69047276  0.89922916    -0.71200
O114        O  0.75829955  0.68056626  0.94043730    -0.72200
O115        O  0.67887580  0.62344136  0.92172251    -0.60800
O116        O  0.80626717  0.74787612  0.91792682    -0.69200
O117        O  0.77006606  0.78889663  0.92449081    -0.68800
O118        O  0.64432433  0.66598373  0.92831674    -0.60000
O119        O  0.72329127  0.72247636  0.94722004    -0.72600
O120        O  0.69243324  0.73228243  0.90553661    -0.71300
Cu121      Cu  0.74402925  0.68401326  0.91961818     1.04600
Cu122      Cu  0.70620363  0.72878780  0.92664688     1.04300
C123        C  0.70596262  0.71306146  0.89586894     0.95000
C124        C  0.74640499  0.70054230  0.95026133     0.94100
C125        C  0.64155723  0.62558477  0.92545783     0.86300
C126        C  0.80772571  0.78788913  0.92060729     0.92500
O127        O  0.95425035  0.65807298  0.07918830    -0.71200
O128        O  0.95285381  0.78169486  0.08378772    -0.72200
O129        O  0.96986694  0.72179075  0.10255174    -0.60800
O130        O  0.93556699  0.71766186  0.06045669    -0.69200
O131        O  0.85777689  0.67594527  0.06623978    -0.68800
O132        O  0.89165040  0.68023979  0.10783868    -0.60000
O133        O  0.87481155  0.74101722  0.08933697    -0.72600
O134        O  0.87630694  0.61562313  0.08475230    -0.71300
Cu135      Cu  0.95585383  0.72117523  0.08128004     1.04600
Cu136      Cu  0.87235486  0.67664590  0.08721630     1.04300
C137        C  0.91599928  0.61759810  0.08138805     0.95000
C138        C  0.91404526  0.78101379  0.08730247     0.94100
C139        C  0.93574266  0.70181694  0.11176517     0.86300
C140        C  0.89102784  0.69658147  0.05685149     0.92500
O141        O  0.26914279  0.28558616  0.92864932    -0.71200
O142        O  0.14623990  0.15968841  0.92513489    -0.72200
O143        O  0.22180335  0.21856132  0.90592983    -0.60800
O144        O  0.19208396  0.22681400  0.94781527    -0.69200
O145        O  0.15405605  0.26609817  0.94135195    -0.68800
O146        O  0.18314973  0.25770408  0.89999148    -0.60000
O147        O  0.10699106  0.19801682  0.91892506    -0.72600
O148        O  0.23158242  0.32554382  0.92239980    -0.71300
Cu149      Cu  0.20876819  0.22139632  0.92712841     1.04600
Cu150      Cu  0.16767230  0.26332822  0.92047279     1.04300
C151        C  0.26999729  0.32515557  0.92592169     0.95000
C152        C  0.10752554  0.15889619  0.92143600     0.94100
C153        C  0.20643984  0.23656253  0.89641937     0.86300
C154        C  0.16761526  0.24718790  0.95104107     0.92500
O155        O  0.01184866  0.25344252  0.10800727    -0.71200
O156        O  0.04842335  0.26064236  0.06661396    -0.72200
O157        O  0.02957826  0.32005918  0.08534566    -0.60800
O158        O  0.02901444  0.19346080  0.08927611    -0.69200
O159        O  0.95138337  0.15405816  0.08318880    -0.68800
O160        O  0.95196605  0.27888199  0.07929187    -0.60000
O161        O  0.97101662  0.22029381  0.06030628    -0.72600
O162        O  0.93396706  0.21305766  0.10222420    -0.71300
Cu163      Cu  0.03248195  0.25839872  0.08750604     1.04600
Cu164      Cu  0.94937118  0.21522291  0.08101974     1.04300
C165        C  0.96752061  0.23200195  0.11165749     0.95000
C166        C  0.01577810  0.24135474  0.05698515     0.94100
C167        C  0.99041333  0.31891878  0.08179698     0.86300
C168        C  0.98963779  0.15390656  0.08689391     0.92500
C169        C  0.06877227  0.24566673  0.01682110     0.18700
C170        C  0.11321804  0.28613978  0.01315542    -0.10400
C171        C  0.13593441  0.28677267  0.00021007    -0.11200
C172        C  0.11439629  0.24687579  0.99088453     0.20300
C173        C  0.06984512  0.20651697  0.99452244    -0.13300
C174        C  0.04713717  0.20588522  0.00746210    -0.11500
C175        C  0.13717591  0.24768046  0.97741532     0.01300
C176        C  0.15343498  0.24777221  0.96568199    -0.31600
C177        C  0.04644966  0.24420970  0.03043231     0.02600
C178        C  0.03028794  0.24278249  0.04227694    -0.33200
H179        H  0.13041119  0.31701989  0.02033505     0.13700
H180        H  0.17023378  0.31828806  0.99748392     0.13500
H181        H  0.05270956  0.17556755  0.98736643     0.13400
H182        H  0.01290861  0.17430398  0.01020514     0.12400
C183        C  0.96915157  0.43429165  0.07990683     0.18700
C184        C  0.98079915  0.46609548  0.09157910    -0.10400
C185        C  0.96653050  0.50099389  0.09158350    -0.11200
C186        C  0.94040023  0.50422385  0.07994161     0.20300
C187        C  0.92895271  0.47259441  0.06822368    -0.13300
C188        C  0.94322789  0.43765423  0.06822058    -0.11500
C189        C  0.92660443  0.54086273  0.07994758     0.01300
C190        C  0.91876231  0.57411779  0.08037831    -0.31600
C191        C  0.98170473  0.39676348  0.08024304     0.02600
C192        C  0.98856163  0.36289018  0.08082890    -0.33200
H193        H  0.00055312  0.46367213  0.10070822     0.13700
H194        H  0.97580966  0.52541293  0.10067318     0.13500
H195        H  0.90899212  0.47489067  0.05913215     0.13400
H196        H  0.93375388  0.41305898  0.05917013     0.12400
C197        C  0.93577217  0.91748804  0.09027764     0.18700
C198        C  0.97907811  0.95146643  0.09689836    -0.10400
C199        C  0.99350968  0.00076992  0.09665346    -0.11200
C200        C  0.96471500  0.01628721  0.08975666     0.20300
C201        C  0.92122148  0.98225154  0.08324869    -0.13300
C202        C  0.90680660  0.93298840  0.08349093    -0.11500
C203        C  0.97935536  0.06694565  0.08928099     0.01300
C204        C  0.98735906  0.10804770  0.08841891    -0.31600
C205        C  0.92251198  0.86719129  0.08983052     0.02600
C206        C  0.91545618  0.82642665  0.08894306    -0.33200
H207        H  0.00191617  0.93989865  0.10210181     0.13700
H208        H  0.02715286  0.02672505  0.10173563     0.13500
H209        H  0.89863188  0.99385125  0.07790075     0.13400
H210        H  0.87343256  0.90711585  0.07826174     0.12400
C211        C  0.50413417  0.51189020  0.92644675     0.17500
C212        C  0.47153876  0.51563289  0.91719323    -0.10400
C213        C  0.42261152  0.48018231  0.91738499    -0.11200
C214        C  0.40605660  0.44090096  0.92686475     0.20300
C215        C  0.43865630  0.43715336  0.93611256    -0.13300
C216        C  0.48758296  0.47260181  0.93592044    -0.11500
C217        C  0.35607648  0.40343683  0.92676965     0.01300
C218        C  0.31547694  0.36942781  0.92652415    -0.31600
C219        C  0.55425512  0.54898824  0.92638705     0.02600
C220        C  0.59519978  0.58236442  0.92613674    -0.33200
H221        H  0.48394657  0.54595116  0.90984554     0.13700
H222        H  0.39780195  0.48328278  0.91012582     0.13500
H223        H  0.42628001  0.40674225  0.94342244     0.13400
H224        H  0.51242418  0.46940739  0.94314143     0.12400
C225        C  0.92279908  0.92376623  0.91867142     0.18700
C226        C  0.91296516  0.95825540  0.92465529    -0.10400
C227        C  0.94844012  0.00722866  0.92470598    -0.11200
C228        C  0.99387289  0.02190245  0.91874553     0.20300
C229        C  0.00370527  0.98744737  0.91271812    -0.13300
C230        C  0.96819254  0.93841990  0.91266798    -0.11500
C231        C  0.03100438  0.07198885  0.91925821     0.01300
C232        C  0.06433673  0.11286370  0.92006322    -0.31600
C233        C  0.88596132  0.87353249  0.91873499     0.02600
C234        C  0.85202961  0.83293873  0.91929270    -0.33200
H235        H  0.87792503  0.94724602  0.92932348     0.13700
H236        H  0.94057907  0.03353666  0.92946041     0.13500
H237        H  0.03887367  0.99845236  0.90815116     0.13400
H238        H  0.97613500  0.91203865  0.90801518     0.12400
C239        C  0.79814603  0.69831164  0.99023110     0.18700
C240        C  0.84836720  0.72589023  0.99200519    -0.10400
C241        C  0.86955075  0.72525230  0.00513809    -0.11200
C242        C  0.84063413  0.69694072  0.01657173     0.20300
C243        C  0.79042465  0.66931747  0.01479111    -0.13300
C244        C  0.76924371  0.66995692  0.00166038    -0.11500
C245        C  0.86209701  0.69696448  0.03023825     0.01300
C246        C  0.87745860  0.69687080  0.04210968    -0.31600
C247        C  0.77656884  0.69867446  0.97661920     0.02600
C248        C  0.76079204  0.69928712  0.96485307    -0.33200
H249        H  0.87113188  0.74787435  0.98323886     0.13700
H250        H  0.90835652  0.74688426  0.00638611     0.13500
H251        H  0.76764860  0.64740383  0.02356617     0.13400
H252        H  0.73042846  0.64839560  0.00042364     0.12400
C253        C  0.69343673  0.71984405  0.85247884     0.18700
C254        C  0.73086526  0.75872875  0.84502985    -0.10400
C255        C  0.73211254  0.75840986  0.82996932    -0.11200
C256        C  0.69603592  0.71912607  0.82225923     0.20300
C257        C  0.65841202  0.68036942  0.82970068    -0.13300
C258        C  0.65717037  0.68068234  0.84477224    -0.11500
C259        C  0.69672651  0.71959248  0.80673185     0.01300
C260        C  0.69606441  0.72266532  0.79378729    -0.31600
C261        C  0.69383874  0.71898720  0.86799932     0.02600
C262        C  0.69727055  0.71714248  0.88089779    -0.33200
H263        H  0.75927043  0.78906973  0.85086299     0.13700
H264        H  0.76118296  0.78875399  0.82434203     0.13500
H265        H  0.63011023  0.64996435  0.82386204     0.13400
H266        H  0.62821010  0.65027114  0.85040826     0.12400
C267        C  0.67283082  0.81217362  0.68329419     0.18700
C268        C  0.71637749  0.84157150  0.67605349    -0.10400
C269        C  0.71648288  0.86300193  0.66288298    -0.11200
C270        C  0.67306144  0.85536744  0.65684349     0.20300
C271        C  0.62943205  0.82582113  0.66405132    -0.13300
C272        C  0.62932759  0.80437141  0.67724176    -0.11500
C273        C  0.67337925  0.87684088  0.64309934     0.01300
C274        C  0.67455758  0.89300764  0.63122852    -0.31600
C275        C  0.67316986  0.79156388  0.69713483     0.02600
C276        C  0.67461173  0.77720298  0.70907822    -0.33200
H277        H  0.75027598  0.84810889  0.68062046     0.13700
H278        H  0.75043989  0.88552276  0.65740822     0.13500
H279        H  0.59556793  0.81937729  0.65948445     0.13400
H280        H  0.59540551  0.78191776  0.68273971     0.12400
C281        C  0.21433399  0.22985883  0.82274562     0.18700
C282        C  0.25846661  0.24975553  0.83011092    -0.10400
C283        C  0.25933858  0.24958653  0.84517917    -0.11200
C284        C  0.21605852  0.22938100  0.85295636     0.20300
C285        C  0.17192427  0.20938206  0.84559125    -0.13300
C286        C  0.17105307  0.20955553  0.83052745    -0.11500
C287        C  0.21670165  0.23053337  0.86846614     0.01300
C288        C  0.21428456  0.23257847  0.88138736    -0.31600
C289        C  0.21354945  0.22882205  0.80722948     0.02600
C290        C  0.21457191  0.22595382  0.79429041    -0.33200
H291        H  0.29215372  0.26528859  0.82420676     0.13700
H292        H  0.29367197  0.26532309  0.85074991     0.13500
H293        H  0.13823051  0.19383209  0.85149376     0.13400
H294        H  0.13670963  0.19380404  0.82496113     0.12400
C295        C  0.91184391  0.93401699  0.75410543     0.18700
C296        C  0.92997528  0.97082680  0.76450877    -0.10400
C297        C  0.97934237  0.00509735  0.76488639    -0.11200
C298        C  0.01095590  0.00273116  0.75489545     0.20300
C299        C  0.99290151  0.96564567  0.74457750    -0.13300
C300        C  0.94352963  0.93136467  0.74420173    -0.11500
C301        C  0.06120269  0.04003834  0.75472114     0.01300
C302        C  0.10168501  0.07443046  0.75424350    -0.31600
C303        C  0.86095472  0.89863494  0.75365467     0.02600
C304        C  0.81912463  0.86692817  0.75312415    -0.33200
H305        H  0.90595410  0.97320715  0.77225572     0.13700
H306        H  0.99276549  0.03378095  0.77285671     0.13500
H307        H  0.01684304  0.96357713  0.73673229     0.13400
H308        H  0.93002190  0.90298214  0.73613460     0.12400
C309        C  0.41485916  0.43130745  0.75113948     0.18700
C310        C  0.41450425  0.46188561  0.74035056    -0.10400
C311        C  0.44832368  0.51154612  0.74058720    -0.11200
C312        C  0.48268118  0.53108286  0.75164490     0.20300
C313        C  0.48267826  0.50061335  0.76254019    -0.13300
C314        C  0.44884434  0.45092764  0.76230270    -0.11500
C315        C  0.51973926  0.58161632  0.75136305     0.01300
C316        C  0.55400643  0.62230844  0.75097964    -0.31600
C317        C  0.37977545  0.38010911  0.75083247     0.02600
C318        C  0.34803583  0.33811954  0.75052207    -0.33200
H319        H  0.38827358  0.44728525  0.73170763     0.13700
H320        H  0.44805494  0.53456833  0.73205525     0.13500
H321        H  0.50919458  0.51515176  0.77110947     0.13400
H322        H  0.44938302  0.42781542  0.77076069     0.12400
C323        C  0.90519633  0.96322210  0.58580402     0.18700
C324        C  0.92022872  0.92926201  0.58783790    -0.10400
C325        C  0.96950387  0.94416872  0.58780898    -0.11200
C326        C  0.00413273  0.99312668  0.58575826     0.20300
C327        C  0.98911833  0.02711133  0.58373664    -0.13300
C328        C  0.93982162  0.01219700  0.58376388    -0.11500
C329        C  0.05483992  0.00800050  0.58582861     0.01300
C330        C  0.09586236  0.01574863  0.58622540    -0.31600
C331        C  0.85447754  0.94830028  0.58602187     0.02600
C332        C  0.81314541  0.93963229  0.58643611    -0.33200
H333        H  0.89392998  0.89136323  0.58947791     0.13700
H334        H  0.98061773  0.91752103  0.58941236     0.13500
H335        H  0.01543842  0.06504182  0.58216861     0.13400
H336        H  0.92870217  0.03886808  0.58223084     0.12400
C337        C  0.48521001  0.95537842  0.59132012     0.18700
C338        C  0.45650084  0.94729745  0.60356322    -0.10400
C339        C  0.42182021  0.96188369  0.60374549    -0.11200
C340        C  0.41567849  0.98483188  0.59171025     0.20300
C341        C  0.44432370  0.99280976  0.57946179    -0.13300
C342        C  0.47898078  0.97822501  0.57927878    -0.11500
C343        C  0.37904891  0.99876998  0.59176117     0.01300
C344        C  0.34627024  0.00737704  0.59161240    -0.31600
C345        C  0.52230293  0.94208267  0.59126780     0.02600
C346        C  0.55593764  0.93478492  0.59109604    -0.33200
H347        H  0.46105742  0.92994109  0.61297460     0.13700
H348        H  0.39977858  0.95522528  0.61326230     0.13500
H349        H  0.43984038  0.01024176  0.57005629     0.13400
H350        H  0.50106820  0.98496284  0.56976763     0.12400
C351        C  0.23673473  0.13927693  0.68348874     0.18700
C352        C  0.27221642  0.12724239  0.68016339    -0.10400
C353        C  0.27098108  0.10530319  0.66695585    -0.11200
C354        C  0.23416459  0.09508668  0.65698057     0.20300
C355        C  0.19885518  0.10736384  0.66028222    -0.13300
C356        C  0.20009164  0.12929135  0.67348057    -0.11500
C357        C  0.23289604  0.07283834  0.64327473     0.01300
C358        C  0.23138727  0.05627622  0.63142861    -0.31600
C359        C  0.23692699  0.16017270  0.69734202     0.02600
C360        C  0.23617249  0.17489794  0.70929770    -0.33200
H361        H  0.30065006  0.13454388  0.68781063     0.13700
H362        H  0.29862649  0.09623319  0.66454272     0.13500
H363        H  0.17029758  0.09989206  0.65266409     0.13400
H364        H  0.17232545  0.13817582  0.67591211     0.12400
C365        C  0.69296315  0.97392320  0.51805542     0.18700
C366        C  0.72605805  0.96620431  0.51028204    -0.10400
C367        C  0.72488440  0.96531466  0.49521371    -0.11200
C368        C  0.69050634  0.97198211  0.48779956     0.20300
C369        C  0.65736067  0.97968247  0.49556173    -0.13300
C370        C  0.65852602  0.98055806  0.51064699    -0.11500
C371        C  0.69055092  0.97270946  0.47225994     0.01300
C372        C  0.69344470  0.97642591  0.45930611    -0.31600
C373        C  0.69333108  0.97315309  0.53359933     0.02600
C374        C  0.69262443  0.96883830  0.54653683    -0.33200
H375        H  0.75266950  0.96073496  0.51586944     0.13700
H376        H  0.75086702  0.95958935  0.48934832     0.13500
H377        H  0.63076777  0.98514492  0.48996224     0.13400
H378        H  0.63255046  0.98626502  0.51652123     0.12400
C379        C  0.78889960  0.07969074  0.34877626     0.18700
C380        C  0.82633916  0.07388343  0.34315496    -0.10400
C381        C  0.84940098  0.09727476  0.33037326    -0.11200
C382        C  0.83529108  0.12677183  0.32315738     0.20300
C383        C  0.79773045  0.13244555  0.32874584    -0.13300
C384        C  0.77466479  0.10905111  0.34153058    -0.11500
C385        C  0.85811223  0.14974302  0.30977241     0.01300
C386        C  0.87464053  0.16615574  0.29807333    -0.31600
C387        C  0.76675244  0.05742483  0.36230401     0.02600
C388        C  0.75122033  0.04184537  0.37415514    -0.33200
H389        H  0.83788456  0.05152821  0.34869447     0.13700
H390        H  0.87816155  0.09233907  0.32611826     0.13500
H391        H  0.78627028  0.15489498  0.32322114     0.13400
H392        H  0.74598247  0.11407750  0.34580358     0.12400
C393        C  0.95137909  0.22812294  0.15510444     0.18700
C394        C  0.93458660  0.25490701  0.16259906    -0.10400
C395        C  0.93580170  0.25619285  0.17766150    -0.11200
C396        C  0.95397868  0.23085806  0.18529015     0.20300
C397        C  0.97074540  0.20405767  0.17779169    -0.13300
C398        C  0.96952453  0.20276661  0.16273599    -0.11500
C399        C  0.95340520  0.23063108  0.20079297     0.01300
C400        C  0.94912654  0.22767582  0.21371053    -0.31600
C401        C  0.95176104  0.22796555  0.13960218     0.02600
C402        C  0.95602371  0.22894878  0.12668743    -0.33200
H403        H  0.92070863  0.27483978  0.15681158     0.13700
H404        H  0.92241808  0.27674905  0.18335401     0.13500
H405        H  0.98455073  0.18405015  0.18357490     0.13400
H406        H  0.98283095  0.18213121  0.15704839     0.12400
C407        C  0.21216468  0.97586999  0.51815973     0.18700
C408        C  0.25261389  0.98104603  0.51071838    -0.10400
C409        C  0.25363464  0.98229319  0.49563442    -0.11200
C410        C  0.21428547  0.97855908  0.48789654     0.20300
C411        C  0.17391788  0.97352040  0.49534194    -0.13300
C412        C  0.17289308  0.97226168  0.51041361    -0.11500
C413        C  0.21427723  0.97781710  0.47235059     0.01300
C414        C  0.21128382  0.97351299  0.45940535    -0.31600
C415        C  0.21168229  0.97620569  0.53371220     0.02600
C416        C  0.21248181  0.98017443  0.54666837    -0.33200
H417        H  0.28335536  0.98421232  0.51656990     0.13700
H418        H  0.28495234  0.98594710  0.49001718     0.13500
H419        H  0.14315834  0.97034259  0.48949652     0.13400
H420        H  0.14154872  0.96858565  0.51602159     0.12400
C421        C  0.40143898  0.95705698  0.41233257     0.18700
C422        C  0.41616360  0.92902404  0.42007607    -0.10400
C423        C  0.46478710  0.94160010  0.42013115    -0.11200
C424        C  0.49893221  0.98232120  0.41247090     0.20300
C425        C  0.48415648  0.01015419  0.40464444    -0.13300
C426        C  0.43552568  0.99757223  0.40458762    -0.11500
C427        C  0.54893426  0.99510009  0.41262602     0.01300
C428        C  0.58973431  0.00246896  0.41304722    -0.31600
C429        C  0.35185484  0.94563158  0.41277327     0.02600
C430        C  0.31161372  0.93971879  0.41338722    -0.33200
H431        H  0.39018776  0.89776612  0.42615448     0.13700
H432        H  0.47579621  0.91974163  0.42619339     0.13500
H433        H  0.51019707  0.04162778  0.39865712     0.13400
H434        H  0.42457134  0.01963964  0.39861486     0.12400
C435        C  0.91627346  0.98729925  0.42189471     0.18700
C436        C  0.96439087  0.02333755  0.41971646    -0.10400
C437        C  0.00080123  0.01127013  0.41970675    -0.11200
C438        C  0.98925522  0.96313272  0.42185883     0.20300
C439        C  0.94117599  0.92714015  0.42413903    -0.13300
C440        C  0.90475945  0.93921244  0.42415291    -0.11500
C441        C  0.02681500  0.95088275  0.42143841     0.01300
C442        C  0.06048584  0.94398229  0.42067669    -0.31600
C443        C  0.87841340  0.99911116  0.42139076     0.02600
C444        C  0.84440380  0.00546156  0.42058295    -0.33200
H445        H  0.97367164  0.06056779  0.41790834     0.13700
H446        H  0.03788925  0.03938094  0.41790752     0.13500
H447        H  0.93183835  0.88982124  0.42578725     0.13400
H448        H  0.86760746  0.91101952  0.42579616     0.12400
C449        C  0.93721209  0.42056764  0.25989197     0.18700
C450        C  0.91003061  0.43745021  0.25270918    -0.10400
C451        C  0.92536191  0.48696186  0.25270767    -0.11200
C452        C  0.96799406  0.51985812  0.25985608     0.20300
C453        C  0.99512959  0.50297336  0.26706079    -0.13300
C454        C  0.97979393  0.45345535  0.26706339    -0.11500
C455        C  0.98305745  0.57066307  0.25993687     0.01300
C456        C  0.99111403  0.61187292  0.25970262    -0.31600
C457        C  0.92267584  0.36989596  0.25952349     0.02600
C458        C  0.91500887  0.32882675  0.25908839    -0.33200
H459        H  0.87720871  0.41244181  0.24706512     0.13700
H460        H  0.90401804  0.49960525  0.24713027     0.13500
H461        H  0.02806002  0.52801381  0.27265195     0.13400
H462        H  0.00124256  0.44083456  0.27258919     0.12400
C463        C  0.93952184  0.00581447  0.25100618     0.18700
C464        C  0.90591746  0.95842315  0.25513791    -0.10400
C465        C  0.91885556  0.92253762  0.25509142    -0.11200
C466        C  0.96547736  0.93386826  0.25093151     0.20300
C467        C  0.99902134  0.98120838  0.24672611    -0.13300
C468        C  0.98607345  0.01710910  0.24676989    -0.11500
C469        C  0.97869113  0.89684803  0.25119119     0.01300
C470        C  0.98626111  0.86347414  0.25189486    -0.31600
C471        C  0.92695474  0.04327400  0.25153263     0.02600
C472        C  0.91964210  0.07679459  0.25233116    -0.33200
H473        H  0.86991224  0.94931927  0.25849407     0.13700
H474        H  0.89264027  0.88605629  0.25838384     0.13500
H475        H  0.03517397  0.99040712  0.24350968     0.13400
H476        H  0.01242301  0.05370368  0.24361467     0.12400
C477        C  0.06915315  0.81435501  0.32351717     0.18700
C478        C  0.10607859  0.80827057  0.32943852    -0.10400
C479        C  0.12845835  0.83164695  0.34231672    -0.11200
C480        C  0.11415442  0.86138188  0.34932026     0.20300
C481        C  0.07723915  0.86743082  0.34339194    -0.13300
C482        C  0.05487160  0.84406614  0.33052609    -0.11500
C483        C  0.13586467  0.88411528  0.36285984     0.01300
C484        C  0.15111251  0.90050703  0.37467719    -0.31600
C485        C  0.04720965  0.79172483  0.30999337     0.02600
C486        C  0.03114110  0.77564437  0.29821595    -0.33200
H487        H  0.11764739  0.78561489  0.32408572     0.13700
H488        H  0.15673588  0.82642469  0.34682710     0.13500
H489        H  0.06563879  0.89006943  0.34873960     0.13400
H490        H  0.02658008  0.84928677  0.32602459     0.12400
C491        C  0.95080301  0.70309810  0.18549581     0.18700
C492        C  0.92289167  0.71853804  0.17803609    -0.10400
C493        C  0.92297538  0.71907311  0.16297733    -0.11200
C494        C  0.95105718  0.70428343  0.15528761     0.20300
C495        C  0.97885705  0.68866093  0.16273868    -0.13300
C496        C  0.97877970  0.68813371  0.17781347    -0.11500
C497        C  0.95043014  0.70444664  0.13977714     0.01300
C498        C  0.94637566  0.70391199  0.12685353    -0.31600
C499        C  0.95250543  0.70478720  0.20099596     0.02600
C500        C  0.95723956  0.70930685  0.21388798    -0.33200
H501        H  0.90138081  0.73048674  0.18385375     0.13700
H502        H  0.90123010  0.73109631  0.15733110     0.13500
H503        H  0.00059688  0.67701751  0.15691169     0.13400
H504        H  0.00075882  0.67642320  0.18347036     0.12400
loop_ 
_geom_bond_atom_site_label_1 
_geom_bond_atom_site_label_2 
_geom_bond_distance 
_geom_bond_site_symmetry_2 
_ccdc_geom_bond_type 
O1           Cu9   1.994       .  S
O1           C11   1.274       .  A
O2           Cu9   1.994       .  S
O2           C12   1.274       .  A
O3           Cu9   2.026       .  S
O3           C13   1.279   1_655  A
O4           Cu9   2.024       .  S
O4           C14   1.279       .  A
O5          Cu10   1.996       .  S
O5           C14   1.274   1_455  A
O6          Cu10   2.000       .  S
O6           C13   1.275       .  A
O7          Cu10   2.025       .  S
O7           C12   1.279   1_455  A
O8          Cu10   2.025       .  S
O8           C11   1.279   1_455  A
Cu9         Cu10   2.379   1_655  S
C11         C470   1.435       .  S
C12         C456   1.435       .  S
C13         C486   1.438       .  S
C14         C500   1.435       .  S
O15         Cu23   1.995       .  S
O15          C25   1.274       .  A
O16         Cu23   1.997       .  S
O16          C26   1.274       .  A
O17         Cu23   2.028       .  S
O17          C27   1.279       .  A
O18         Cu23   2.028       .  S
O18          C28   1.279       .  A
O19         Cu24   2.000       .  S
O19          C28   1.275       .  A
O20         Cu24   2.000       .  S
O20          C27   1.275       .  A
O21         Cu24   2.022       .  S
O21          C26   1.278       .  A
O22         Cu24   2.021       .  S
O22          C25   1.278       .  A
Cu23        Cu24   2.379       .  S
C25         C442   1.433       .  S
C26         C430   1.435       .  S
C27         C484   1.438       .  S
C28         C414   1.439       .  S
O29         Cu37   1.994       .  S
O29          C39   1.274       .  A
O30         Cu37   1.996       .  S
O30          C40   1.274       .  A
O31         Cu37   2.026       .  S
O31          C41   1.279       .  A
O32         Cu37   2.024       .  S
O32          C42   1.279       .  A
O33         Cu38   1.995       .  S
O33          C42   1.274       .  A
O34         Cu38   1.998       .  S
O34          C41   1.274       .  A
O35         Cu38   2.025       .  S
O35          C40   1.279       .  A
O36         Cu38   2.024       .  S
O36          C39   1.279       .  A
Cu37        Cu38   2.379       .  S
C39         C472   1.434       .  S
C40         C458   1.436       .  S
C41         C386   1.437       .  S
C42         C400   1.434       .  S
O43         Cu51   2.000       .  S
O43          C53   1.275       .  A
O44         Cu51   1.999       .  S
O44          C54   1.275   1_545  A
O45         Cu51   2.022       .  S
O45          C55   1.278       .  A
O46         Cu51   2.023       .  S
O46          C56   1.279       .  A
O47         Cu52   1.996       .  S
O47          C56   1.274   1_565  A
O48         Cu52   1.993       .  S
O48          C55   1.274   1_565  A
O49         Cu52   2.027       .  S
O49          C54   1.279       .  A
O50         Cu52   2.027       .  S
O50          C53   1.279   1_565  A
Cu51        Cu52   2.379   1_545  S
C53         C388   1.438       .  S
C54         C372   1.438       .  S
C55         C444   1.433       .  S
C56         C428   1.435       .  S
O57         Cu65   1.995       .  S
O57          C67   1.274   1_565  A
O58         Cu65   2.000       .  S
O58          C68   1.274   1_565  A
O59         Cu65   2.034       .  S
O59          C69   1.280   1_565  A
O60         Cu65   2.032       .  S
O60          C70   1.280       .  A
O61         Cu66   1.998       .  S
O61          C70   1.274   1_545  A
O62         Cu66   2.003       .  S
O62          C69   1.275       .  A
O63         Cu66   2.036       .  S
O63          C68   1.280       .  A
O64         Cu66   2.034       .  S
O64          C67   1.280       .  A
Cu65        Cu66   2.377   1_565  S
C67         C330   1.439       .  S
C68         C344   1.442       .  S
C69         C358   1.442       .  S
C70         C416   1.439       .  S
O71         Cu79   2.005       .  S
O71          C81   1.275       .  A
O72         Cu79   1.997       .  S
O72          C82   1.274       .  A
O73         Cu79   2.031       .  S
O73          C83   1.280       .  A
O74         Cu79   2.033       .  S
O74          C84   1.280       .  A
O75         Cu80   2.000       .  S
O75          C84   1.274       .  A
O76         Cu80   1.996       .  S
O76          C83   1.274       .  A
O77         Cu80   2.026       .  S
O77          C82   1.279       .  A
O78         Cu80   2.031       .  S
O78          C81   1.280       .  A
Cu79        Cu80   2.378       .  S
C81         C360   1.442       .  S
C82         C290   1.436       .  S
C83         C302   1.438       .  S
C84         C318   1.441       .  S
O85         Cu93   1.998       .  S
O85          C95   1.274       .  A
O86         Cu93   2.002       .  S
O86          C96   1.275       .  A
O87         Cu93   2.035       .  S
O87          C97   1.280       .  A
O88         Cu93   2.034       .  S
O88          C98   1.280       .  A
O89         Cu94   1.997       .  S
O89          C98   1.274       .  A
O90         Cu94   2.000       .  S
O90          C97   1.274       .  A
O91         Cu94   2.032       .  S
O91          C96   1.280       .  A
O92         Cu94   2.031       .  S
O92          C95   1.280       .  A
Cu93        Cu94   2.377       .  S
C95         C374   1.439       .  S
C96         C274   1.441       .  S
C97         C346   1.442       .  S
C98         C332   1.440       .  S
O99        Cu107   1.998       .  S
O99         C109   1.274       .  A
O100       Cu107   1.997       .  S
O100        C110   1.274       .  A
O101       Cu107   2.029       .  S
O101        C111   1.279       .  A
O102       Cu107   2.032       .  S
O102        C112   1.280       .  A
O103       Cu108   2.003       .  S
O103        C112   1.275       .  A
O104       Cu108   1.995       .  S
O104        C111   1.274       .  A
O105       Cu108   2.032       .  S
O105        C110   1.280       .  A
O106       Cu108   2.033       .  S
O106        C109   1.280       .  A
Cu107      Cu108   2.378       .  S
C109        C316   1.440       .  S
C110        C304   1.439       .  S
C111        C260   1.437       .  S
C112        C276   1.441       .  S
O113       Cu121   1.999       .  S
O113        C123   1.275       .  A
O114       Cu121   2.002       .  S
O114        C124   1.275       .  A
O115       Cu121   2.020       .  S
O115        C125   1.278       .  A
O116       Cu121   2.019       .  S
O116        C126   1.278       .  A
O117       Cu122   1.992       .  S
O117        C126   1.274       .  A
O118       Cu122   1.996       .  S
O118        C125   1.274       .  A
O119       Cu122   2.025       .  S
O119        C124   1.279       .  A
O120       Cu122   2.025       .  S
O120        C123   1.279       .  A
Cu121      Cu122   2.380       .  S
C123        C262   1.437       .  S
C124        C248   1.438       .  S
C125        C220   1.434       .  S
C126        C234   1.431       .  S
O127       Cu135   1.997       .  S
O127        C137   1.274       .  A
O128       Cu135   1.994       .  S
O128        C138   1.274       .  A
O129       Cu135   2.023       .  S
O129        C139   1.279       .  A
O130       Cu135   2.025       .  S
O130        C140   1.279       .  A
O131       Cu136   2.000       .  S
O131        C140   1.275       .  A
O132       Cu136   1.998       .  S
O132        C139   1.274       .  A
O133       Cu136   2.024       .  S
O133        C138   1.279       .  A
O134       Cu136   2.025       .  S
O134        C137   1.279       .  A
Cu135      Cu136   2.379       .  S
C137        C190   1.436       .  S
C138        C206   1.434       .  S
C139        C498   1.435       .  S
C140        C246   1.438       .  S
O141       Cu149   1.995       .  S
O141        C151   1.274       .  A
O142       Cu149   1.991       .  S
O142        C152   1.274       .  A
O143       Cu149   2.024       .  S
O143        C153   1.279       .  A
O144       Cu149   2.024       .  S
O144        C154   1.279       .  A
O145       Cu150   1.999       .  S
O145        C154   1.275       .  A
O146       Cu150   1.996       .  S
O146        C153   1.274       .  A
O147       Cu150   2.019       .  S
O147        C152   1.278       .  A
O148       Cu150   2.021       .  S
O148        C151   1.278       .  A
Cu149      Cu150   2.380       .  S
C151        C218   1.434       .  S
C152        C232   1.431       .  S
C153        C288   1.435       .  S
C154        C176   1.437       .  S
O155       Cu163   1.996       .  S
O155        C165   1.274   1_455  A
O156       Cu163   1.998       .  S
O156        C166   1.275       .  A
O157       Cu163   2.025       .  S
O157        C167   1.279   1_455  A
O158       Cu163   2.025       .  S
O158        C168   1.279   1_455  A
O159       Cu164   1.994       .  S
O159        C168   1.274       .  A
O160       Cu164   1.997       .  S
O160        C167   1.274       .  A
O161       Cu164   2.024       .  S
O161        C166   1.279   1_655  A
O162       Cu164   2.023       .  S
O162        C165   1.278       .  A
Cu163      Cu164   2.380   1_455  S
C165        C402   1.434       .  S
C166        C178   1.436       .  S
C167        C192   1.436       .  S
C168        C204   1.435       .  S
C169        C177   1.441       .  S
C169        C170   1.402       .  A
C169        C174   1.401       .  A
C170        C171   1.400       .  A
C170        H179   1.083       .  S
C171        C172   1.401   1_554  A
C171        H180   1.084   1_554  S
C172        C175   1.442       .  S
C172        C173   1.402       .  A
C173        C174   1.399   1_556  A
C173        H181   1.083       .  S
C174        H182   1.084       .  S
C175        C176   1.207       .  T
C177        C178   1.207       .  T
C183        C191   1.441       .  S
C183        C184   1.401       .  A
C183        C188   1.402       .  A
C184        C185   1.399       .  A
C184        H193   1.083   1_655  S
C185        C186   1.402       .  A
C185        H194   1.084       .  S
C186        C189   1.441       .  S
C186        C187   1.401       .  A
C187        C188   1.400       .  A
C187        H195   1.083       .  S
C188        H196   1.084       .  S
C189        C190   1.207       .  T
C191        C192   1.207       .  T
C197        C205   1.440       .  S
C197        C198   1.403       .  A
C197        C202   1.400       .  A
C198        C199   1.400   1_565  A
C198        H207   1.084   1_655  S
C199        C200   1.401       .  A
C199        H208   1.083   1_655  S
C200        C203   1.440       .  S
C200        C201   1.402   1_545  A
C201        C202   1.398       .  A
C201        H209   1.084       .  S
C202        H210   1.083       .  S
C203        C204   1.206       .  T
C205        C206   1.206       .  T
C211        C219   1.439       .  S
C211        C212   1.402       .  A
C211        C216   1.400       .  A
C212        C213   1.399       .  A
C212        H221   1.084       .  S
C213        C214   1.401       .  A
C213        H222   1.083       .  S
C214        C217   1.439       .  S
C214        C215   1.402       .  A
C215        C216   1.399       .  A
C215        H223   1.084       .  S
C216        H224   1.083       .  S
C217        C218   1.205       .  T
C219        C220   1.205       .  T
C225        C233   1.437       .  S
C225        C226   1.401       .  A
C225        C230   1.400       .  A
C226        C227   1.397   1_565  A
C226        H235   1.084       .  S
C227        C228   1.399       .  A
C227        H236   1.083       .  S
C228        C231   1.437   1_655  S
C228        C229   1.402   1_645  A
C229        C230   1.399   1_455  A
C229        H237   1.084       .  S
C230        H238   1.083       .  S
C231        C232   1.204       .  T
C233        C234   1.204       .  T
C239        C247   1.443       .  S
C239        C240   1.403       .  A
C239        C244   1.401   1_556  A
C240        C241   1.400   1_556  A
C240        H249   1.084       .  S
C241        C242   1.401       .  A
C241        H250   1.083       .  S
C242        C245   1.443       .  S
C242        C243   1.402       .  A
C243        C244   1.400       .  A
C243        H251   1.084       .  S
C244        H252   1.083       .  S
C245        C246   1.208       .  T
C247        C248   1.208       .  T
C253        C261   1.442       .  S
C253        C254   1.402       .  A
C253        C258   1.402       .  A
C254        C255   1.399       .  A
C254        H263   1.083       .  S
C255        C256   1.402       .  A
C255        H264   1.083       .  S
C256        C259   1.442       .  S
C256        C257   1.402       .  A
C257        C258   1.400       .  A
C257        H265   1.083       .  S
C258        H266   1.083       .  S
C259        C260   1.207       .  T
C261        C262   1.207       .  T
C267        C275   1.447       .  S
C267        C268   1.402       .  A
C267        C272   1.403       .  A
C268        C269   1.401       .  A
C268        H277   1.083       .  S
C269        C270   1.402       .  A
C269        H278   1.084       .  S
C270        C273   1.446       .  S
C270        C271   1.403       .  A
C271        C272   1.403       .  A
C271        H279   1.083       .  S
C272        H280   1.083       .  S
C273        C274   1.210       .  T
C275        C276   1.210       .  T
C281        C289   1.441       .  S
C281        C282   1.402       .  A
C281        C286   1.401       .  A
C282        C283   1.400       .  A
C282        H291   1.083       .  S
C283        C284   1.401       .  A
C283        H292   1.083       .  S
C284        C287   1.441       .  S
C284        C285   1.402       .  A
C285        C286   1.399       .  A
C285        H293   1.084       .  S
C286        H294   1.083       .  S
C287        C288   1.206       .  T
C289        C290   1.207       .  T
C295        C303   1.444       .  S
C295        C296   1.401       .  A
C295        C300   1.403       .  A
C296        C297   1.401   1_565  A
C296        H305   1.083       .  S
C297        C298   1.403   1_655  A
C297        H306   1.084       .  S
C298        C301   1.444       .  S
C298        C299   1.402   1_445  A
C299        C300   1.401       .  A
C299        H307   1.083   1_655  S
C300        H308   1.084       .  S
C301        C302   1.208       .  T
C303        C304   1.209       .  T
C309        C317   1.446       .  S
C309        C310   1.403       .  A
C309        C314   1.402       .  A
C310        C311   1.401       .  A
C310        H319   1.083       .  S
C311        C312   1.401       .  A
C311        H320   1.084       .  S
C312        C315   1.446       .  S
C312        C313   1.403       .  A
C313        C314   1.402       .  A
C313        H321   1.083       .  S
C314        H322   1.084       .  S
C315        C316   1.209       .  T
C317        C318   1.209       .  T
C323        C331   1.445       .  S
C323        C324   1.401       .  A
C323        C328   1.403   1_565  A
C324        C325   1.401       .  A
C324        H333   1.083       .  S
C325        C326   1.403   1_655  A
C325        H334   1.084       .  S
C326        C329   1.445   1_565  S
C326        C327   1.401   1_465  A
C327        C328   1.401       .  A
C327        H335   1.083   1_655  S
C328        H336   1.084       .  S
C329        C330   1.209       .  T
C331        C332   1.209       .  T
C337        C345   1.447       .  S
C337        C338   1.402       .  A
C337        C342   1.403       .  A
C338        C339   1.402       .  A
C338        H347   1.083       .  S
C339        C340   1.403       .  A
C339        H348   1.084       .  S
C340        C343   1.447       .  S
C340        C341   1.402       .  A
C341        C342   1.401       .  A
C341        H349   1.083   1_565  S
C342        H350   1.084       .  S
C343        C344   1.210   1_565  T
C345        C346   1.210       .  T
C351        C359   1.447       .  S
C351        C352   1.403       .  A
C351        C356   1.402       .  A
C352        C353   1.402       .  A
C352        H361   1.083       .  S
C353        C354   1.403       .  A
C353        H362   1.083       .  S
C354        C357   1.447       .  S
C354        C355   1.403       .  A
C355        C356   1.401       .  A
C355        H363   1.083       .  S
C356        H364   1.083       .  S
C357        C358   1.210       .  T
C359        C360   1.210       .  T
C365        C373   1.444       .  S
C365        C366   1.402       .  A
C365        C370   1.402       .  A
C366        C367   1.400       .  A
C366        H375   1.083       .  S
C367        C368   1.401       .  A
C367        H376   1.083       .  S
C368        C371   1.443       .  S
C368        C369   1.402       .  A
C369        C370   1.401       .  A
C369        H377   1.083       .  S
C370        H378   1.083       .  S
C371        C372   1.208       .  T
C373        C374   1.208       .  T
C379        C387   1.443       .  S
C379        C380   1.402       .  A
C379        C384   1.402       .  A
C380        C381   1.400       .  A
C380        H389   1.083       .  S
C381        C382   1.402       .  A
C381        H390   1.083       .  S
C382        C385   1.442       .  S
C382        C383   1.402       .  A
C383        C384   1.400       .  A
C383        H391   1.084       .  S
C384        H392   1.083       .  S
C385        C386   1.207       .  T
C387        C388   1.208       .  T
C393        C401   1.440       .  S
C393        C394   1.401       .  A
C393        C398   1.402       .  A
C394        C395   1.399       .  A
C394        H403   1.083       .  S
C395        C396   1.402       .  A
C395        H404   1.083       .  S
C396        C399   1.440       .  S
C396        C397   1.401       .  A
C397        C398   1.399       .  A
C397        H405   1.083       .  S
C398        H406   1.084       .  S
C399        C400   1.206       .  T
C401        C402   1.206       .  T
C407        C415   1.444       .  S
C407        C408   1.403       .  A
C407        C412   1.402       .  A
C408        C409   1.401       .  A
C408        H417   1.083       .  S
C409        C410   1.402       .  A
C409        H418   1.083       .  S
C410        C413   1.444       .  S
C410        C411   1.402       .  A
C411        C412   1.400       .  A
C411        H419   1.083       .  S
C412        H420   1.083       .  S
C413        C414   1.208       .  T
C415        C416   1.209       .  T
C421        C429   1.440       .  S
C421        C422   1.401       .  A
C421        C426   1.402       .  A
C422        C423   1.399       .  A
C422        H431   1.084       .  S
C423        C424   1.402       .  A
C423        H432   1.083       .  S
C424        C427   1.440       .  S
C424        C425   1.400   1_565  A
C425        C426   1.399   1_545  A
C425        H433   1.083       .  S
C426        H434   1.083   1_565  S
C427        C428   1.206   1_565  T
C429        C430   1.206       .  T
C435        C443   1.439       .  S
C435        C436   1.400   1_565  A
C435        C440   1.402       .  A
C436        C437   1.398   1_655  A
C436        H445   1.083       .  S
C437        C438   1.402   1_445  A
C437        H446   1.084       .  S
C438        C441   1.439   1_655  S
C438        C439   1.400       .  A
C439        C440   1.399       .  A
C439        H447   1.083       .  S
C440        H448   1.084       .  S
C441        C442   1.205       .  T
C443        C444   1.205   1_565  T
C449        C457   1.441       .  S
C449        C450   1.400       .  A
C449        C454   1.403       .  A
C450        C451   1.399       .  A
C450        H459   1.083       .  S
C451        C452   1.403       .  A
C451        H460   1.083       .  S
C452        C455   1.441       .  S
C452        C453   1.400       .  A
C453        C454   1.399       .  A
C453        H461   1.083   1_655  S
C454        H462   1.083   1_655  S
C455        C456   1.206       .  T
C457        C458   1.206       .  T
C463        C471   1.440       .  S
C463        C464   1.400   1_545  A
C463        C468   1.402       .  A
C464        C465   1.399       .  A
C464        H473   1.084       .  S
C465        C466   1.402       .  A
C465        H474   1.083       .  S
C466        C469   1.440       .  S
C466        C467   1.400       .  A
C467        C468   1.399   1_565  A
C467        H475   1.084   1_655  S
C468        H476   1.083   1_655  S
C469        C470   1.206       .  T
C471        C472   1.206       .  T
C477        C485   1.443       .  S
C477        C478   1.402       .  A
C477        C482   1.401       .  A
C478        C479   1.401       .  A
C478        H487   1.084       .  S
C479        C480   1.402       .  A
C479        H488   1.083       .  S
C480        C483   1.443       .  S
C480        C481   1.402       .  A
C481        C482   1.400       .  A
C481        H489   1.084       .  S
C482        H490   1.083       .  S
C483        C484   1.208       .  T
C485        C486   1.208       .  T
C491        C499   1.440       .  S
C491        C492   1.400       .  A
C491        C496   1.402       .  A
C492        C493   1.399       .  A
C492        H501   1.083       .  S
C493        C494   1.402       .  A
C493        H502   1.083       .  S
C494        C497   1.441       .  S
C494        C495   1.401       .  A
C495        C496   1.400       .  A
C495        H503   1.083   1_655  S
C496        H504   1.083   1_655  S
C497        C498   1.206       .  T
C499        C500   1.206       .  T
