geometry optimzed in LAMMPS
_audit_creation_date              2020-12-01 
_audit_creation_method            'lammps2cif' 
_symmetry_space_group_name_H-M    'P1' 
_symmetry_Int_Tables_number       1 
_symmetry_cell_setting            triclinic 
loop_ 
_symmetry_equiv_pos_as_xyz 
  x,y,z 
_cell_length_a                    60.03194218 
_cell_length_b                    59.97499242255383 
_cell_length_c                    20.79882598473108 
_cell_angle_alpha                 90.11169681506938 
_cell_angle_beta                  90.02614909447414 
_cell_angle_gamma                 89.67407651634173 
loop_ 
_atom_site_label 
_atom_site_type_symbol 
_atom_site_fract_x 
_atom_site_fract_y 
_atom_site_fract_z 
_atom_site_charge 
O1          O  0.39520539  0.62073934  0.36664605    -0.74600
O2          O  0.39633062  0.68273097  0.31961599    -0.74600
O3          O  0.36397084  0.65264254  0.34516054    -0.74700
O4          O  0.42738240  0.65100631  0.34237648    -0.74800
O5          O  0.42725457  0.64169889  0.23865738    -0.74700
O6          O  0.36297169  0.64315806  0.24158810    -0.74700
O7          O  0.39544390  0.67314373  0.21605321    -0.74600
O8          O  0.39453711  0.61173922  0.26264480    -0.74700
Ni9        Ni  0.39574724  0.65212210  0.34707609     1.25400
Ni10       Ni  0.39504445  0.64210409  0.23602223     1.25400
C11         C  0.39449281  0.60600845  0.32188842     0.87600
C12         C  0.39609463  0.68811165  0.25991261     0.87500
C13         C  0.35289952  0.64803854  0.29429666     0.87500
C14         C  0.43790030  0.64619289  0.29064048     0.87700
O15         O  0.39444904  0.92208936  0.06087072    -0.74600
O16         O  0.39680809  0.85864608  0.08873222    -0.74600
O17         O  0.36402975  0.88984786  0.08174731    -0.74700
O18         O  0.42723690  0.89116382  0.06649283    -0.74800
O19         O  0.43063528  0.89709266  0.17191222    -0.74700
O20         O  0.36681499  0.89461416  0.18780567    -0.74700
O21         O  0.40054078  0.86457662  0.19399809    -0.74600
O22         O  0.39679547  0.92731155  0.16681503    -0.74700
Ni23       Ni  0.39555345  0.89018001  0.07072390     1.25400
Ni24       Ni  0.39882077  0.89609864  0.18388357     1.25400
C25         C  0.39494855  0.93513328  0.10979555     0.87600
C26         C  0.39904598  0.85119631  0.14624883     0.87500
C27         C  0.35493781  0.89209454  0.13700928     0.87500
C28         C  0.43937873  0.89469036  0.11603352     0.87700
O29         O  0.14348213  0.61675313  0.23565792    -0.74600
O30         O  0.14358382  0.68002383  0.26892442    -0.74600
O31         O  0.17523352  0.64782908  0.25548236    -0.74700
O32         O  0.11175556  0.64891263  0.24764869    -0.74800
O33         O  0.10972249  0.64151221  0.01920413    -0.74700
O34         O  0.17385764  0.64265485  0.02826073    -0.74700
O35         O  0.14075872  0.67324775  0.04064688    -0.74600
O36         O  0.14288306  0.61075255  0.34136720    -0.74700
Ni37       Ni  0.14354447  0.64863361  0.24817184     1.25400
Ni38       Ni  0.14172863  0.64181305  0.02779610     1.25400
C39         C  0.14365008  0.60333892  0.28365867     0.87600
C40         C  0.14203271  0.68698542  0.32721605     0.87500
C41         C  0.18507502  0.64511926  0.30951222     0.87500
C42         C  0.10017532  0.64524318  0.29817429     0.87700
O43         O  0.14567557  0.91729914  0.22397423    -0.74600
O44         O  0.14501799  0.85494596  0.17799668    -0.74600
O45         O  0.17713310  0.88572305  0.19940197    -0.74700
O46         O  0.11377999  0.88632678  0.20386734    -0.74800
O47         O  0.11242831  0.89530677  0.10003258    -0.74700
O48         O  0.17649024  0.89486122  0.09561672    -0.74700
O49         O  0.14433575  0.86434708  0.07437711    -0.74600
O50         O  0.14480735  0.92588816  0.11979550    -0.74700
Ni51       Ni  0.14543172  0.88574703  0.20501365     1.25400
Ni52       Ni  0.14445887  0.89542362  0.09379574     1.25400
C53         C  0.14551901  0.93188007  0.17885523     0.87600
C54         C  0.14464486  0.84944528  0.11828292     0.87500
C55         C  0.18735661  0.89020194  0.14706918     0.87500
C56         C  0.10257097  0.89082335  0.15315997     0.87700
O57         O  0.42146924  0.39774593  0.99037200    -0.74600
O58         O  0.35888764  0.39554477  0.03060157    -0.74600
O59         O  0.38859782  0.42837360  0.00720787    -0.74700
O60         O  0.39181148  0.36484107  0.01272095    -0.74800
O61         O  0.39928870  0.36628200  0.11768864    -0.74700
O62         O  0.39654100  0.43035832  0.11170117    -0.74700
O63         O  0.36701891  0.39718833  0.13508738    -0.74600
O64         O  0.42893030  0.39941631  0.09524578    -0.74700
Ni65       Ni  0.38988597  0.39657023  0.00651754     1.25400
Ni66       Ni  0.39823769  0.39836092  0.11861494     1.25400
C67         C  0.43551725  0.39910201  0.03669194     0.87600
C68         C  0.35269369  0.39592034  0.08969037     0.87500
C69         C  0.39215993  0.43992398  0.05800076     0.87500
C70         C  0.39598501  0.35504490  0.06601572     0.87700
O71         O  0.11928097  0.39415633  0.29095609    -0.74600
O72         O  0.18226297  0.39222419  0.25715631    -0.74600
O73         O  0.15183843  0.42486449  0.27847166    -0.74700
O74         O  0.14963267  0.36148720  0.27085517    -0.74800
O75         O  0.14421256  0.36299831  0.16487246    -0.74700
O76         O  0.14418599  0.42719442  0.17386977    -0.74700
O77         O  0.17541421  0.39524504  0.15219637    -0.74600
O78         O  0.11286995  0.39488280  0.18540732    -0.74700
Ni79       Ni  0.15101212  0.39313453  0.27805375     1.25400
Ni80       Ni  0.14392584  0.39514864  0.16529722     1.25400
C81         C  0.10568432  0.39447034  0.24336686     0.87600
C82         C  0.18920385  0.39364928  0.19893838     0.87500
C83         C  0.14826481  0.43658023  0.22809939     0.87500
C84         C  0.14658962  0.35172282  0.21686547     0.87700
O85         O  0.42198144  0.14451284  0.12788364    -0.74600
O86         O  0.35855340  0.14605695  0.09816440    -0.74600
O87         O  0.38937924  0.11360174  0.11597313    -0.74700
O88         O  0.39084415  0.17693277  0.11163034    -0.74800
O89         O  0.39671525  0.17628430  0.33920126    -0.74700
O90         O  0.39530231  0.11189248  0.01033639    -0.74700
O91         O  0.36475344  0.14467577  0.32585963    -0.74600
O92         O  0.42734355  0.14321160  0.02193153    -0.74700
Ni93       Ni  0.39000221  0.14532163  0.11713884     1.25400
Ni94       Ni  0.39626328  0.14403171  0.33719620     1.25400
C95         C  0.43511072  0.14343469  0.07922777     0.87600
C96         C  0.35125711  0.14541843  0.04014041     0.87500
C97         C  0.39192994  0.10219176  0.06443019     0.87500
C98         C  0.39386147  0.18717089  0.05851625     0.87700
O99         O  0.11988380  0.14103816  0.16070201    -0.74600
O100        O  0.18201946  0.14108858  0.20582654    -0.74600
O101        O  0.15115456  0.10936716  0.18445224    -0.74700
O102        O  0.15094697  0.17276924  0.18094420    -0.74800
O103        O  0.14187816  0.17385604  0.28477047    -0.74700
O104        O  0.14228003  0.10947658  0.28841298    -0.74700
O105        O  0.17290417  0.14197294  0.30967319    -0.74600
O106        O  0.11125067  0.14172202  0.26489693    -0.74700
Ni107      Ni  0.15131396  0.14101490  0.17936910     1.25400
Ni108      Ni  0.14175193  0.14174424  0.29069323     1.25400
C109        C  0.10530764  0.14170441  0.20576616     0.87600
C110        C  0.18767866  0.14169167  0.26531560     0.87500
C111        C  0.14692096  0.09882722  0.23641691     0.87500
C112        C  0.14634161  0.18388201  0.23182905     0.87700
O113        O  0.64519569  0.42224365  0.03003057    -0.74600
O114        O  0.64325210  0.35879406  0.33259888    -0.74600
O115        O  0.67590357  0.38978914  0.34566582    -0.74700
O116        O  0.61262463  0.39164385  0.35218400    -0.74800
O117        O  0.61085399  0.39755318  0.24650205    -0.74700
O118        O  0.67509728  0.39552056  0.23977846    -0.74700
O119        O  0.64214529  0.36521024  0.22711747    -0.74600
O120        O  0.64417297  0.42781910  0.25755065    -0.74700
Ni121      Ni  0.64426119  0.39031676  0.35217177     1.25400
Ni122      Ni  0.64297224  0.39670138  0.23896455     1.25400
C123        C  0.64534544  0.43545727  0.31496826     0.87600
C124        C  0.64262830  0.35160495  0.27437645     0.87500
C125        C  0.68601729  0.39279391  0.29229606     0.87500
C126        C  0.60125304  0.39538349  0.30128479     0.87700
O127        O  0.64494785  0.12099663  0.04773766    -0.74600
O128        O  0.64490953  0.18307561  0.09539372    -0.74600
O129        O  0.67664545  0.15156686  0.07224166    -0.74700
O130        O  0.61313366  0.15212553  0.06926761    -0.74800
O131        O  0.61205955  0.14307715  0.17317900    -0.74700
O132        O  0.67622672  0.14265512  0.17629756    -0.74700
O133        O  0.64394174  0.17355299  0.19888164    -0.74600
O134        O  0.64412139  0.11206524  0.15168728    -0.74700
Ni135      Ni  0.64493093  0.15235687  0.06754611     1.25400
Ni136      Ni  0.64410074  0.14251908  0.17870310     1.25400
C137        C  0.64435354  0.10628451  0.09236001     0.87600
C138        C  0.64431782  0.18851503  0.15516203     0.87500
C139        C  0.68694651  0.14674386  0.12426839     0.87500
C140        C  0.60209170  0.14730528  0.11998209     0.87700
O141        O  0.89549419  0.42000439  0.22208099    -0.74600
O142        O  0.89633490  0.35772352  0.26614341    -0.74600
O143        O  0.86403498  0.38871508  0.24537265    -0.74700
O144        O  0.92763213  0.38890059  0.24195455    -0.74800
O145        O  0.92858646  0.39770796  0.01275344    -0.74700
O146        O  0.86457065  0.39755773  0.01614125    -0.74700
O147        O  0.89683420  0.36677716  0.03684502    -0.74600
O148        O  0.89608126  0.42844584  0.32648905    -0.74700
Ni149      Ni  0.89585629  0.38850910  0.24017102     1.25400
Ni150      Ni  0.89656004  0.39792414  0.01839784     1.25400
C151        C  0.89548728  0.43449645  0.26753021     0.87600
C152        C  0.89662742  0.35203690  0.32560517     0.87500
C153        C  0.85375378  0.39317838  0.29781951     0.87500
C154        C  0.93867895  0.39333573  0.29304005     0.87700
O155        O  0.89639653  0.11847677  0.19383257    -0.74600
O156        O  0.89561043  0.18168925  0.16201155    -0.74600
O157        O  0.86434453  0.14965756  0.17364547    -0.74700
O158        O  0.92773473  0.15063137  0.18320823    -0.74800
O159        O  0.93016850  0.14414944  0.07790952    -0.74700
O160        O  0.86614418  0.14326895  0.06819815    -0.74700
O161        O  0.89795222  0.17504403  0.05674268    -0.74600
O162        O  0.89861038  0.11251419  0.08821703    -0.74700
Ni163      Ni  0.89594883  0.15034995  0.18192252     1.25400
Ni164      Ni  0.89825927  0.14353386  0.06902247     1.25400
C165        C  0.89780348  0.10508149  0.14579755     0.87600
C166        C  0.89676255  0.18873866  0.10388357     0.87500
C167        C  0.85469723  0.14628284  0.11966020     0.87500
C168        C  0.93948491  0.14746790  0.13259491     0.87700
O169        O  0.61905842  0.64516002  0.96002557    -0.74600
O170        O  0.68183722  0.64618933  0.99945587    -0.74600
O171        O  0.65141924  0.61401851  0.97652553    -0.74700
O172        O  0.64947188  0.67750948  0.98151526    -0.74800
O173        O  0.64242847  0.67660019  0.08674341    -0.74700
O174        O  0.64325482  0.61235125  0.08086657    -0.74700
O175        O  0.67372324  0.64467508  0.10392335    -0.74600
O176        O  0.61171823  0.64454527  0.06504138    -0.74700
Ni177      Ni  0.65073482  0.64575507  0.97567311     1.25400
Ni178      Ni  0.64248560  0.64447400  0.08784017     1.25400
C179        C  0.60503918  0.64494217  0.00658981     0.87600
C180        C  0.68805623  0.64562924  0.05854173     0.87500
C181        C  0.64768177  0.60261498  0.02729134     0.87500
C182        C  0.64571833  0.68758518  0.03472455     0.87700
O183        O  0.91953960  0.64324741  0.27648973    -0.74600
O184        O  0.85705878  0.64413879  0.23561260    -0.74600
O185        O  0.88799369  0.61195879  0.25682898    -0.74700
O186        O  0.88844204  0.67533643  0.25637279    -0.74800
O187        O  0.89604703  0.67533135  0.15152397    -0.74700
O188        O  0.89663802  0.61105084  0.15270561    -0.74700
O189        O  0.86527168  0.64301305  0.13114684    -0.74600
O190        O  0.92738433  0.64346219  0.17177205    -0.74700
Ni191      Ni  0.88797024  0.64365056  0.25996264     1.25400
Ni192      Ni  0.89662430  0.64318836  0.14800669     1.25400
C193        C  0.93378548  0.64348955  0.23053219     0.87600
C194        C  0.85088347  0.64377158  0.17653411     0.87500
C195        C  0.89231438  0.60093852  0.20554996     0.87500
C196        C  0.89220717  0.68589698  0.20418180     0.87700
O197        O  0.61890545  0.89744857  0.09059849    -0.74600
O198        O  0.68163530  0.89858484  0.05187957    -0.74600
O199        O  0.64940793  0.92966166  0.07230479    -0.74700
O200        O  0.65108755  0.86627954  0.07189506    -0.74800
O201        O  0.64248082  0.86577955  0.30095721    -0.74700
O202        O  0.64278481  0.93012061  0.30012580    -0.74700
O203        O  0.67359467  0.89751331  0.28061470    -0.74600
O204        O  0.61164384  0.89841412  0.98552740    -0.74700
Ni205      Ni  0.65057254  0.89798884  0.07535554     1.25400
Ni206      Ni  0.64235916  0.89793963  0.29637283     1.25400
C207        C  0.60493491  0.89816114  0.04391329     0.87600
C208        C  0.68790793  0.89802524  0.99286355     0.87500
C209        C  0.64564850  0.94040964  0.02032791     0.87500
C210        C  0.64690196  0.85545154  0.02029621     0.87700
O211        O  0.92295719  0.89457965  0.14020059    -0.74600
O212        O  0.85941494  0.89586108  0.16518564    -0.74600
O213        O  0.89160189  0.92694428  0.14777225    -0.74700
O214        O  0.89108100  0.86349795  0.15615086    -0.74800
O215        O  0.89519423  0.86504723  0.26262628    -0.74700
O216        O  0.89683983  0.92910896  0.25375097    -0.74700
O217        O  0.86470677  0.89835056  0.27104010    -0.74600
O218        O  0.92744301  0.89572686  0.24658359    -0.74700
Ni219      Ni  0.89102840  0.89518195  0.14854573     1.25400
Ni220      Ni  0.89621573  0.89713211  0.26225573     1.25400
C221        C  0.93563197  0.89459829  0.18986197     0.87600
C222        C  0.85164456  0.89742452  0.22256183     0.87500
C223        C  0.89463948  0.93852010  0.19876102     0.87500
C224        C  0.89318349  0.85374897  0.21048218     0.87700
C225        C  0.71182482  0.89788532  0.30955459    -0.01500
C226        C  0.71859449  0.89172573  0.24745374    -0.09500
C227        C  0.74105229  0.89158475  0.23040383    -0.18300
C228        C  0.75763183  0.89786063  0.27503260     0.04100
C229        C  0.75067766  0.90455642  0.00420136     0.18200
C230        C  0.72801558  0.90423649  0.02109959    -0.19800
C231        C  0.76632717  0.91173528  0.04942615    -0.21000
C232        C  0.78884598  0.91212799  0.03424379    -0.19600
C233        C  0.79626238  0.90513652  0.30715324     0.19600
C234        C  0.78084910  0.89784873  0.25983623     0.01800
C235        C  0.78941976  0.89069026  0.19973701    -0.14300
C236        C  0.81228961  0.89096826  0.18714868    -0.12000
C237        C  0.82734874  0.89807058  0.23415826     0.01300
C238        C  0.81915773  0.90517394  0.29399745    -0.24200
H239        H  0.70644871  0.88681316  0.21165815     0.09300
H240        H  0.74483635  0.88667005  0.18175582     0.12900
H241        H  0.72293284  0.90927102  0.06903708     0.11600
H242        H  0.76110581  0.91716415  0.09684738     0.12800
H243        H  0.80054419  0.91786445  0.07027002     0.11800
H244        H  0.77894678  0.88445614  0.16179191     0.08900
H245        H  0.81823039  0.88516153  0.14084059     0.12200
H246        H  0.83067157  0.91073139  0.33081700     0.14000
C247        C  0.89334989  0.82912855  0.21226066    -0.01500
C248        C  0.88720445  0.81771147  0.26800230    -0.09500
C249        C  0.88650486  0.79444031  0.26869008    -0.23100
C250        C  0.89252213  0.78177285  0.21376987     0.04100
C251        C  0.89929746  0.79349634  0.15786138     0.18200
C252        C  0.89940547  0.81689405  0.15737918    -0.19800
C253        C  0.90594434  0.78182503  0.10271608    -0.21000
C254        C  0.90569169  0.75865917  0.10140027    -0.19600
C255        C  0.89876389  0.74657948  0.15519458     0.19600
C256        C  0.89213423  0.75795333  0.21226767     0.01800
C257        C  0.88539514  0.74496942  0.26529939    -0.14300
C258        C  0.88553001  0.72176791  0.26211812    -0.12000
C259        C  0.89206959  0.71058673  0.20585886     0.01300
C260        C  0.89855591  0.72314628  0.15235867    -0.24200
H261        H  0.88242970  0.82681910  0.31092348     0.09300
H262        H  0.88110145  0.78691024  0.31289845     0.12900
H263        H  0.90441818  0.82562216  0.11415457     0.11600
H264        H  0.91149095  0.79069455  0.06036525     0.12800
H265        H  0.91103106  0.75012537  0.05805355     0.11800
H266        H  0.87984881  0.75218905  0.30997656     0.08900
H267        H  0.88033400  0.71254875  0.30421134     0.12200
H268        H  0.90365186  0.71470020  0.10858073     0.14000
C269        C  0.64534037  0.71221632  0.03540674    -0.01500
C270        C  0.65147530  0.72403897  0.09059959    -0.09500
C271        C  0.65233605  0.74731503  0.09000330    -0.18300
C272        C  0.64644534  0.75958481  0.03433777     0.04100
C273        C  0.63959866  0.74745444  0.97907438     0.18200
C274        C  0.63942238  0.72404390  0.97980440    -0.19800
C275        C  0.63291980  0.75873692  0.92340169    -0.21000
C276        C  0.63315073  0.78190008  0.92096836    -0.19600
C277        C  0.64018652  0.79437663  0.97406533     0.19600
C278        C  0.64696382  0.78339655  0.03153963     0.01800
C279        C  0.65398121  0.79674616  0.08366564    -0.14300
C280        C  0.65393664  0.81992253  0.07930215    -0.12000
C281        C  0.64712299  0.83074293  0.02281438     0.01300
C282        C  0.64037338  0.81780807  0.97014102    -0.24200
H283        H  0.65618688  0.71523145  0.13400968     0.09300
H284        H  0.65770633  0.75517175  0.13386976     0.12900
H285        H  0.63445134  0.71497688  0.93700887     0.11600
H286        H  0.62728357  0.74957141  0.21471075     0.12800
H287        H  0.62773321  0.79012555  0.21041912     0.11800
H288        H  0.65968894  0.78983523  0.12852081     0.08900
H289        H  0.65935584  0.82941313  0.12076723     0.12200
H290        H  0.63508068  0.82595671  0.92617090     0.14000
C291        C  0.82686631  0.64445662  0.16031363    -0.01500
C292        C  0.81133652  0.65233819  0.20518589    -0.09500
C293        C  0.78869232  0.65337205  0.19011553    -0.18300
C294        C  0.78070702  0.64614788  0.12957356     0.04100
C295        C  0.79656917  0.63842643  0.08383040     0.18200
C296        C  0.81936052  0.63772133  0.09940783    -0.19800
C297        C  0.78959295  0.63141908  0.02284557    -0.21000
C298        C  0.76718097  0.63215726  0.00588409    -0.19600
C299        C  0.75111528  0.63957372  0.04983156     0.19600
C300        C  0.75761114  0.64635850  0.11270686     0.01800
C301        C  0.74065821  0.65270210  0.15628128    -0.14300
C302        C  0.71831255  0.65245089  0.13808159    -0.12000
C303        C  0.71198307  0.64616439  0.07577033     0.01300
C304        C  0.72851753  0.63988548  0.03164425    -0.24200
H305        H  0.81675527  0.65809064  0.25203003     0.09300
H306        H  0.77791915  0.66014604  0.22671715     0.12900
H307        H  0.83127017  0.63172649  0.06410103     0.11600
H308        H  0.80157374  0.62532141  0.98795958     0.12800
H309        H  0.76234861  0.62665584  0.95823168     0.11800
H310        H  0.74403932  0.65761381  0.20515239     0.08900
H311        H  0.70587842  0.65732062  0.17322960     0.12200
H312        H  0.72376385  0.63471831  0.98358106     0.14000
C313        C  0.89606772  0.96299622  0.19256450    -0.01500
C314        C  0.90275418  0.97208128  0.13380100    -0.09500
C315        C  0.90420680  0.99501872  0.12558474    -0.18300
C316        C  0.89853875  0.00988260  0.17585663     0.04100
C317        C  0.89152258  0.00066635  0.23543798     0.18200
C318        C  0.89067883  0.97736279  0.24362641    -0.19800
C319        C  0.88510938  0.01478291  0.28596352    -0.21000
C320        C  0.88543992  0.03786135  0.27851496    -0.19600
C321        C  0.89238467  0.04742537  0.22056030     0.19600
C322        C  0.89922493  0.03352972  0.16860787     0.01800
C323        C  0.90629900  0.04390046  0.11129548    -0.14300
C324        C  0.90585141  0.06696197  0.10495534    -0.12000
C325        C  0.89869982  0.08066454  0.15556546     0.01300
C326        C  0.89229283  0.07080522  0.21379269    -0.24200
H327        H  0.90714046  0.96133844  0.09374708     0.09300
H328        H  0.90963146  0.00047965  0.07892729     0.12900
H329        H  0.88534056  0.97042879  0.28916431     0.11600
H330        H  0.87951779  0.00793026  0.33129525     0.12800
H331        H  0.88011076  0.04830535  0.31826503     0.11800
H332        H  0.91225749  0.03473781  0.07016065     0.08900
H333        H  0.91122520  0.07409671  0.05975944     0.12200
H334        H  0.88682383  0.08127381  0.25337807     0.14000
C335        C  0.89453052  0.45860882  0.25306402    -0.01500
C336        C  0.90049351  0.46701328  0.19269413    -0.09500
C337        C  0.90019598  0.49002773  0.18107668    -0.18300
C338        C  0.89356226  0.50530731  0.22957053     0.04100
C339        C  0.88698411  0.49646013  0.29002669     0.18200
C340        C  0.88770556  0.47348622  0.30119147    -0.19800
C341        C  0.87971118  0.51054406  0.33942177    -0.21000
C342        C  0.87905571  0.53340334  0.33058857    -0.19600
C343        C  0.88583710  0.54274958  0.27235312     0.19600
C344        C  0.89317817  0.52897408  0.22075850     0.01800
C345        C  0.89994443  0.53959219  0.16323799    -0.14300
C346        C  0.89942562  0.56288829  0.15755638    -0.12000
C347        C  0.89229610  0.57626024  0.20902735     0.01300
C348        C  0.88542833  0.56594243  0.26598989    -0.24200
H349        H  0.90577140  0.45580392  0.15467043     0.09300
H350        H  0.90525416  0.49535135  0.13385871     0.12900
H351        H  0.88276555  0.46714641  0.34784899     0.11600
H352        H  0.87454317  0.50381204  0.05216232     0.12800
H353        H  0.87333571  0.54387867  0.36984456     0.11800
H354        H  0.90591810  0.53036031  0.12216874     0.08900
H355        H  0.90486245  0.57043482  0.11301290     0.12200
H356        H  0.87980897  0.57602608  0.30624313     0.14000
C357        C  0.89661727  0.32819740  0.01043806    -0.01500
C358        C  0.89055497  0.32185712  0.07284041    -0.09500
C359        C  0.89034791  0.29944917  0.09072531    -0.18300
C360        C  0.89649874  0.28252411  0.04667271     0.04100
C361        C  0.90322542  0.28911502  0.98392689     0.18200
C362        C  0.90289110  0.31170769  0.29944221    -0.19800
C363        C  0.91039844  0.27314607  0.27262158    -0.21000
C364        C  0.91083339  0.25067653  0.95538053    -0.19600
C365        C  0.90372407  0.24358247  0.01600895     0.19600
C366        C  0.89640391  0.25934999  0.06263005     0.01800
C367        C  0.88914222  0.25116566  0.12284831    -0.14300
C368        C  0.88951356  0.22835319  0.13642082    -0.12000
C369        C  0.89678929  0.21294107  0.09029000     0.01300
C370        C  0.90382476  0.22072075  0.03011709    -0.24200
H371        H  0.88572154  0.33429491  0.10809470     0.09300
H372        H  0.88550271  0.29596719  0.13954361     0.12900
H373        H  0.90788661  0.31647666  0.25130482     0.11600
H374        H  0.91585499  0.27808125  0.22508640     0.12800
H375        H  0.91660393  0.23873275  0.25315453     0.11800
H376        H  0.88279183  0.26191527  0.16017902     0.08900
H377        H  0.88372408  0.22273441  0.18294600     0.12200
H378        H  0.90949505  0.20893058  0.99397423     0.14000
C379        C  0.64410442  0.96496154  0.02421114    -0.01500
C380        C  0.64991901  0.97871825  0.97263743    -0.09500
C381        C  0.64964321  0.00199221  0.97963912    -0.18300
C382        C  0.64306492  0.01213074  0.03832546     0.04100
C383        C  0.63646934  0.99790203  0.08941327     0.18200
C384        C  0.63717666  0.97473571  0.08202641    -0.19800
C385        C  0.62943245  0.00677553  0.14819850    -0.21000
C386        C  0.62944647  0.02959043  0.15846006    -0.19600
C387        C  0.63643545  0.04409355  0.11009257     0.19600
C388        C  0.64301248  0.03573635  0.04886069     0.01800
C389        C  0.64940161  0.05140743  0.00153850    -0.14300
C390        C  0.64957752  0.07431035  0.01509657    -0.12000
C391        C  0.64365162  0.08224621  0.07622664     0.01300
C392        C  0.63696413  0.06698107  0.12314183    -0.24200
H393        H  0.65527423  0.97146154  0.26075103     0.09300
H394        H  0.65491938  0.01159043  0.93872312     0.12900
H395        H  0.63231798  0.96418295  0.12189844     0.11600
H396        H  0.62408849  0.99595529  0.18684500     0.12800
H397        H  0.62410962  0.03592563  0.20484210     0.11800
H398        H  0.65445685  0.04647254  0.95385571     0.08900
H399        H  0.65471006  0.08580438  0.97789748     0.12200
H400        H  0.63204552  0.07293401  0.17036654     0.14000
C401        C  0.71152036  0.14566919  0.12307785    -0.01500
C402        C  0.72251809  0.13923919  0.06656000    -0.09500
C403        C  0.74572806  0.13837678  0.06383512    -0.18300
C404        C  0.75881484  0.14461000  0.11736130     0.04100
C405        C  0.74752057  0.15131975  0.17449350     0.18200
C406        C  0.72411176  0.15140877  0.17719900    -0.19800
C407        C  0.75963945  0.15822400  0.22831724    -0.21000
C408        C  0.78276395  0.15850398  0.22694453    -0.19600
C409        C  0.79436989  0.15178071  0.17181694     0.19600
C410        C  0.78264002  0.14470433  0.11612591     0.01800
C411        C  0.79531382  0.13818878  0.06171613    -0.14300
C412        C  0.81859797  0.13892689  0.06253601    -0.12000
C413        C  0.83002579  0.14586522  0.11771099     0.01300
C414        C  0.81772089  0.15221342  0.17216833    -0.24200
H415        H  0.71308068  0.13458493  0.02422849     0.09300
H416        H  0.75289257  0.13292469  0.01900075     0.12900
H417        H  0.71567062  0.15655103  0.22092758     0.11600
H418        H  0.75115894  0.16368434  0.27159197     0.12800
H419        H  0.79165010  0.16411979  0.26929616     0.11800
H420        H  0.78776057  0.13237341  0.01785919     0.08900
H421        H  0.82767567  0.13382813  0.01992037     0.12200
H422        H  0.82633218  0.15765009  0.21523090     0.14000
C423        C  0.64724484  0.45987301  0.32392410    -0.01500
C424        C  0.65477400  0.47291527  0.27266036    -0.09500
C425        C  0.65623164  0.49597494  0.27821413    -0.18300
C426        C  0.64969362  0.50703473  0.00179501     0.04100
C427        C  0.64244460  0.49378843  0.05437061     0.18200
C428        C  0.64149009  0.47037495  0.04855535    -0.19800
C429        C  0.63586171  0.50404810  0.11191227    -0.21000
C430        C  0.63609330  0.52718816  0.11816189    -0.19600
C431        C  0.64288238  0.54069423  0.06698025     0.19600
C432        C  0.64988661  0.53075784  0.00814559     0.01800
C433        C  0.65655321  0.54502276  0.29125509    -0.14300
C434        C  0.65579876  0.56807052  0.29835950    -0.12000
C435        C  0.64863172  0.57793788  0.02251871     0.01300
C436        C  0.64243931  0.56410100  0.07382845    -0.24200
H437        H  0.65968069  0.46523370  0.22759884     0.09300
H438        H  0.66234709  0.50459699  0.23652933     0.12900
H439        H  0.63576026  0.46040857  0.08865684     0.11600
H440        H  0.63023733  0.49410986  0.15214614     0.12800
H441        H  0.63066012  0.53457945  0.16311729     0.11800
H442        H  0.66228998  0.53899273  0.24535763     0.08900
H443        H  0.66087057  0.57822093  0.25795937     0.12200
H444        H  0.63697515  0.57151194  0.11876218     0.14000
C445        C  0.71060262  0.39362142  0.29281531    -0.01500
C446        C  0.72162323  0.40042355  0.34882866    -0.09500
C447        C  0.74476309  0.40110217  0.01810630    -0.18300
C448        C  0.75787669  0.39462911  0.29812529     0.04100
C449        C  0.74662204  0.38774916  0.24121984     0.18200
C450        C  0.72318620  0.38761329  0.23874151    -0.19800
C451        C  0.75883020  0.38077850  0.18746043    -0.21000
C452        C  0.78199045  0.38052750  0.18883553    -0.19600
C453        C  0.79354364  0.38730850  0.24393348     0.19600
C454        C  0.78168281  0.39444946  0.29946209     0.01800
C455        C  0.79417015  0.40089503  0.02068538    -0.14300
C456        C  0.81741066  0.40023040  0.02013168    -0.12000
C457        C  0.82906554  0.39338332  0.29847096     0.01300
C458        C  0.81694845  0.38691942  0.24383356    -0.24200
H459        H  0.71221483  0.40526759  0.05775662     0.09300
H460        H  0.75185847  0.40674736  0.06275722     0.12900
H461        H  0.71474712  0.38231183  0.19525014     0.11600
H462        H  0.75040066  0.37528821  0.14420723     0.12800
H463        H  0.79094319  0.37488301  0.14654763     0.11800
H464        H  0.78654802  0.40661506  0.06459763     0.08900
H465        H  0.82629707  0.40531655  0.06301749     0.12200
H466        H  0.82573004  0.38150425  0.20096134     0.14000
C467        C  0.64399544  0.21230056  0.17465758    -0.01500
C468        C  0.63770804  0.21836447  0.23730708    -0.09500
C469        C  0.63723182  0.24070653  0.25644276    -0.18300
C470        C  0.64329001  0.25786063  0.21344334     0.04100
C471        C  0.65021711  0.25154799  0.15047202     0.18200
C472        C  0.65022136  0.22903615  0.13151010    -0.19800
C473        C  0.65728680  0.26772201  0.10681201    -0.21000
C474        C  0.65730361  0.29012309  0.12381199    -0.19600
C475        C  0.65001832  0.29695964  0.18466875     0.19600
C476        C  0.64290738  0.28099650  0.23057395     0.01800
C477        C  0.63560369  0.28897915  0.29123369    -0.14300
C478        C  0.63576468  0.31178568  0.30586526    -0.12000
C479        C  0.64278016  0.32737264  0.26027930     0.01300
C480        C  0.64979910  0.31977166  0.19971142    -0.24200
H481        H  0.63292371  0.20576093  0.27181398     0.09300
H482        H  0.63222334  0.24398203  0.30532419     0.12900
H483        H  0.65539431  0.22452164  0.08322890     0.11600
H484        H  0.66292546  0.26300138  0.05916498     0.12800
H485        H  0.66299336  0.30222144  0.08894710     0.11800
H486        H  0.62943394  0.27805290  0.32810509     0.08900
H487        H  0.62998818  0.31727604  0.35265519     0.12200
H488        H  0.65531286  0.33168858  0.16401539     0.14000
C489        C  0.96408582  0.14747702  0.13841989    -0.01500
C490        C  0.97778369  0.14046329  0.08760968    -0.09500
C491        C  0.00096641  0.13958144  0.09492929    -0.18300
C492        C  0.01121122  0.14593068  0.15344015     0.04100
C493        C  0.99715699  0.15329717  0.20434842     0.18200
C494        C  0.97399602  0.15399343  0.19643572    -0.19800
C495        C  0.00621466  0.15977299  0.26336267    -0.21000
C496        C  0.02899481  0.15864524  0.27372028    -0.19600
C497        C  0.04330415  0.15117983  0.22513410     0.19600
C498        C  0.03477652  0.14504167  0.16383993     0.01800
C499        C  0.05025202  0.13829224  0.11609131    -0.14300
C500        C  0.07313514  0.13742088  0.12920939    -0.12000
C501        C  0.08124950  0.14289955  0.19038710     0.01300
C502        C  0.06617564  0.14985588  0.23784893    -0.24200
H503        H  0.97055839  0.13527420  0.04229272     0.09300
H504        H  0.01039108  0.13358703  0.05430943     0.12900
H505        H  0.96362394  0.15952985  0.23612638     0.11600
H506        H  0.99557002  0.16560370  0.30204063     0.12800
H507        H  0.03546516  0.16365013  0.32018192     0.11800
H508        H  0.04519996  0.13358976  0.06826017     0.08900
H509        H  0.08447436  0.13214272  0.09156950     0.12200
H510        H  0.07227775  0.15448198  0.28510347     0.14000
C511        C  0.57758209  0.14593036  0.11539001    -0.01500
C512        C  0.56797425  0.13923480  0.05724401    -0.09500
C513        C  0.54497718  0.13746474  0.05090981    -0.18300
C514        C  0.53058087  0.14294856  0.10241644     0.04100
C515        C  0.54034373  0.15009436  0.16124155     0.18200
C516        C  0.56370430  0.15112601  0.16762760    -0.19800
C517        C  0.52670520  0.15644142  0.21284188    -0.21000
C518        C  0.50357721  0.15588899  0.20727314    -0.19600
C519        C  0.49346499  0.14879077  0.15014243     0.19600
C520        C  0.50687283  0.14200147  0.09712313     0.01800
C521        C  0.49596491  0.13475540  0.04072487    -0.14300
C522        C  0.47285222  0.13510481  0.03614054    -0.12000
C523        C  0.45960862  0.14230625  0.08768623     0.01300
C524        C  0.47002170  0.14875808  0.14518622    -0.24200
H525        H  0.57837028  0.13497995  0.01637832     0.09300
H526        H  0.53907445  0.13193472  0.00473336     0.12900
H527        H  0.57106385  0.15646442  0.21268685     0.11600
H528        H  0.53397311  0.16219231  0.25753742     0.12800
H529        H  0.49352257  0.16119061  0.24782956     0.11800
H530        H  0.50475144  0.12878072  0.99895180     0.08900
H531        H  0.46530557  0.12967644  0.99147968     0.12200
H532        H  0.45993465  0.15426565  0.18549181     0.14000
C533        C  0.21153133  0.14221437  0.28336991    -0.01500
C534        C  0.21792531  0.14853251  0.34562329    -0.09500
C535        C  0.24038495  0.14943703  0.36294393    -0.18300
C536        C  0.25731062  0.14376786  0.31845268     0.04100
C537        C  0.25067474  0.13682098  0.25585553     0.18200
C538        C  0.22804322  0.13638436  0.23875128    -0.19800
C539        C  0.26664912  0.13019309  0.21069393    -0.21000
C540        C  0.28916160  0.13054297  0.22596984    -0.19600
C541        C  0.29628915  0.13779097  0.28651919     0.19600
C542        C  0.28053069  0.14454847  0.33376911     0.01800
C543        C  0.28877489  0.15198340  0.06066473    -0.14300
C544        C  0.31163730  0.15209232  0.07370190    -0.12000
C545        C  0.32701959  0.14527460  0.02699758     0.01300
C546        C  0.31917676  0.13828069  0.29999524    -0.24200
H547        H  0.20549521  0.15305125  0.38115136     0.09300
H548        H  0.24393104  0.15465232  0.07827394     0.12900
H549        H  0.22327479  0.13123145  0.19068310     0.11600
H550        H  0.26168925  0.12459863  0.16323929     0.12800
H551        H  0.30110683  0.12515258  0.19004125     0.11800
H552        H  0.27801399  0.15792482  0.09847606     0.08900
H553        H  0.31730714  0.15781465  0.12032226     0.12200
H554        H  0.33093617  0.13298808  0.26336663     0.14000
C555        C  0.08134413  0.39412845  0.25466494    -0.01500
C556        C  0.07226252  0.40014422  0.31431877    -0.09500
C557        C  0.04917234  0.40027382  0.32381396    -0.18300
C558        C  0.03441329  0.39394933  0.27393786     0.04100
C559        C  0.04386449  0.38734506  0.21410036     0.18200
C560        C  0.06698487  0.38771110  0.20493628    -0.19800
C561        C  0.03022517  0.38035909  0.16350068    -0.21000
C562        C  0.00726661  0.38006853  0.17052022    -0.19600
C563        C  0.99735890  0.38687516  0.22817693     0.19600
C564        C  0.01068914  0.39386880  0.28094498     0.01800
C565        C  0.99961556  0.40054802  0.33798069    -0.14300
C566        C  0.97633749  0.40018781  0.34227654    -0.12000
C567        C  0.96335448  0.39338124  0.28982301     0.01300
C568        C  0.97408643  0.38674069  0.23302711    -0.24200
H569        H  0.08302655  0.40511839  0.35356481     0.09300
H570        H  0.04339905  0.40540800  0.37061678     0.12900
H571        H  0.07384172  0.38275487  0.15879038     0.11600
H572        H  0.03736805  0.37502536  0.11812727     0.12800
H573        H  0.99716327  0.37454316  0.13039842     0.11800
H574        H  0.00844833  0.40638097  0.04651489     0.08900
H575        H  0.96847625  0.40551511  0.05339304     0.12200
H576        H  0.96429042  0.38140789  0.19201671     0.14000
C577        C  0.14623065  0.20857319  0.22830892    -0.01500
C578        C  0.15304953  0.21919194  0.17164294    -0.09500
C579        C  0.15308603  0.24236995  0.16687368    -0.18300
C580        C  0.14608543  0.25590438  0.21879053     0.04100
C581        C  0.13909163  0.24510238  0.27619623     0.18200
C582        C  0.13927395  0.22169060  0.28050066    -0.19800
C583        C  0.13195967  0.25773228  0.32901135    -0.21000
C584        C  0.13196916  0.28088490  0.32653263    -0.19600
C585        C  0.13901587  0.29199790  0.27110409     0.19600
C586        C  0.14588265  0.27972684  0.21599486     0.01800
C587        C  0.15223096  0.29188364  0.16065326    -0.14300
C588        C  0.15190949  0.31519257  0.16038619    -0.12000
C589        C  0.14578234  0.32711402  0.21552434     0.01300
C590        C  0.13928209  0.31538809  0.27061465    -0.24200
H591        H  0.15854550  0.20954277  0.13046342     0.09300
H592        H  0.15881037  0.24914054  0.12194548     0.12900
H593        H  0.13391922  0.21369808  0.32454237     0.11600
H594        H  0.12640724  0.24964887  0.37266947     0.12800
H595        H  0.12640670  0.29018630  0.36831930     0.11800
H596        H  0.15758645  0.28390844  0.11685332     0.08900
H597        H  0.15699621  0.32391991  0.11730373     0.12200
H598        H  0.13425989  0.32452855  0.31331987     0.14000
C599        C  0.57683858  0.39781421  0.30809418    -0.01500
C600        C  0.56826521  0.40491724  0.03398860    -0.09500
C601        C  0.54545964  0.40673640  0.04409206    -0.18300
C602        C  0.53015342  0.40105202  0.32866411     0.04100
C603        C  0.53877951  0.39394998  0.26821173     0.18200
C604        C  0.56200882  0.39275414  0.25804023    -0.19800
C605        C  0.52414569  0.38760648  0.21905930    -0.21000
C606        C  0.50117375  0.38785757  0.22897372    -0.19600
C607        C  0.49221026  0.39469585  0.28804190     0.19600
C608        C  0.50659213  0.40167210  0.00506042     0.01800
C609        C  0.49683166  0.40866461  0.06356298    -0.14300
C610        C  0.47391400  0.40788189  0.07266745    -0.12000
C611        C  0.45972219  0.40049637  0.02374611     0.01300
C612        C  0.46895084  0.39429725  0.29758318    -0.24200
H613        H  0.57934985  0.40918903  0.07321724     0.09300
H614        H  0.54048202  0.41230745  0.09117900     0.12900
H615        H  0.56850717  0.38719690  0.21205204     0.11600
H616        H  0.53051501  0.38202646  0.17298613     0.12800
H617        H  0.49034659  0.38245109  0.19035419     0.11800
H618        H  0.50637621  0.41477178  0.10363033     0.08900
H619        H  0.46727452  0.41315695  0.11872215     0.12200
H620        H  0.45809597  0.38868649  0.25921473     0.14000
C621        C  0.39387408  0.21189695  0.05950980    -0.01500
C622        C  0.38700818  0.22316346  0.11532427    -0.09500
C623        C  0.38718860  0.24634535  0.11872464    -0.18300
C624        C  0.39451802  0.25928035  0.06628495     0.04100
C625        C  0.40125818  0.24787831  0.00934022     0.18200
C626        C  0.40081213  0.22440975  0.00634421    -0.19800
C627        C  0.40851132  0.25998008  0.95590152    -0.21000
C628        C  0.40897741  0.28316414  0.95748419    -0.19600
C629        C  0.40233144  0.29484392  0.01264432     0.19600
C630        C  0.39533173  0.28308863  0.06827364     0.01800
C631        C  0.38955925  0.29570639  0.12350632    -0.14300
C632        C  0.39049437  0.31896121  0.12319169    -0.12000
C633        C  0.39662950  0.33043453  0.06754856     0.01300
C634        C  0.40259851  0.31826991  0.01246613    -0.24200
H635        H  0.38134278  0.21401280  0.15703372     0.09300
H636        H  0.38140843  0.25358282  0.16313949     0.12900
H637        H  0.40610666  0.21590490  0.96286145     0.11600
H638        H  0.41384214  0.25145654  0.91252176     0.12800
H639        H  0.41468674  0.29203953  0.91532338     0.11800
H640        H  0.38419915  0.28815471  0.16772601     0.08900
H641        H  0.38577274  0.32803360  0.16623047     0.12200
H642        H  0.40758781  0.32708009  0.96935860     0.14000
C643        C  0.32877325  0.39486110  0.10654082    -0.01500
C644        C  0.32233326  0.38847219  0.16859274    -0.09500
C645        C  0.29989372  0.38766696  0.18585061    -0.18300
C646        C  0.28300344  0.39356265  0.14155058     0.04100
C647        C  0.28965373  0.40044191  0.07898492     0.18200
C648        C  0.31230339  0.40068277  0.06180578    -0.19800
C649        C  0.27368527  0.40737517  0.03419496    -0.21000
C650        C  0.25119381  0.40751311  0.04994262    -0.19600
C651        C  0.24406177  0.40039037  0.11053324     0.19600
C652        C  0.25981188  0.39319506  0.15723283     0.01800
C653        C  0.25160469  0.38590142  0.21739263    -0.14300
C654        C  0.22880240  0.38623707  0.23096475    -0.12000
C655        C  0.21339542  0.39350979  0.18491654     0.01300
C656        C  0.22119270  0.40044676  0.12463335    -0.24200
H657        H  0.33473917  0.38393341  0.20415924     0.09300
H658        H  0.29636134  0.38265876  0.23449376     0.12900
H659        H  0.31713709  0.40590592  0.01392818     0.11600
H660        H  0.27864377  0.41292893  0.98677636     0.12800
H661        H  0.23926950  0.41320668  0.01437425     0.11800
H662        H  0.26233777  0.37961669  0.25476621     0.08900
H663        H  0.22319386  0.38048536  0.27753797     0.12200
H664        H  0.20942265  0.40607250  0.08848246     0.14000
C665        C  0.14649671  0.95604460  0.19354256    -0.01500
C666        C  0.14047008  0.96469716  0.25378999    -0.09500
C667        C  0.14073038  0.98778352  0.26515104    -0.18300
C668        C  0.14739808  0.00288355  0.21654506     0.04100
C669        C  0.15410163  0.99376578  0.15633825     0.18200
C670        C  0.15340678  0.97075890  0.14543317    -0.19800
C671        C  0.16143012  0.00761371  0.10680887    -0.21000
C672        C  0.16191314  0.03050438  0.11510199    -0.19600
C673        C  0.15487221  0.04014403  0.17289766     0.19600
C674        C  0.14760600  0.02662407  0.22481316     0.01800
C675        C  0.14064987  0.03757786  0.28190920    -0.14300
C676        C  0.14067056  0.06095296  0.28657190    -0.12000
C677        C  0.14753703  0.07406904  0.23452604     0.01300
C678        C  0.15483538  0.06338482  0.17829971    -0.24200
H679        H  0.13514500  0.95363924  0.29185081     0.09300
H680        H  0.13558796  0.99333190  0.31220897     0.12900
H681        H  0.15842039  0.96425854  0.09888793     0.11600
H682        H  0.16678486  0.00069391  0.06113978     0.12800
H683        H  0.16760314  0.04078208  0.07563113     0.11800
H684        H  0.13485004  0.02852958  0.32331527     0.08900
H685        H  0.13502216  0.06875418  0.33070141     0.12200
H686        H  0.16036577  0.07322476  0.13768946     0.14000
C687        C  0.96005835  0.89297688  0.18294450    -0.01500
C688        C  0.97279428  0.88563464  0.23522323    -0.09500
C689        C  0.99586081  0.88427937  0.23120698    -0.18300
C690        C  0.00718439  0.89069575  0.17472866     0.04100
C691        C  0.99423879  0.89795500  0.12135195     0.18200
C692        C  0.97084119  0.89882228  0.12564356    -0.19800
C693        C  0.00476000  0.90455650  0.06446805    -0.21000
C694        C  0.02789315  0.90416940  0.05949413    -0.19600
C695        C  0.04108834  0.89719376  0.11132382     0.19600
C696        C  0.03087667  0.89035768  0.16969882     0.01800
C697        C  0.04483192  0.88369038  0.22092237    -0.14300
C698        C  0.06785848  0.88398113  0.21477974    -0.12000
C699        C  0.07797191  0.89067632  0.15734051     0.01300
C700        C  0.06446237  0.89717523  0.10548512    -0.24200
H701        H  0.96486659  0.88073811  0.27977752     0.09300
H702        H  0.00425212  0.87823225  0.27348916     0.12900
H703        H  0.96107726  0.90450823  0.08491188     0.11600
H704        H  0.99503021  0.91023943  0.02371592     0.12800
H705        H  0.03551875  0.90955640  0.01498703     0.11800
H706        H  0.03859192  0.87818053  0.26665971     0.08900
H707        H  0.07779100  0.87881385  0.25568259     0.12200
H708        H  0.07210229  0.90240588  0.06080024     0.14000
C709        C  0.14522670  0.57893766  0.27380045    -0.01500
C710        C  0.15248617  0.56549992  0.32471777    -0.09500
C711        C  0.15414731  0.54249270  0.31788129    -0.18300
C712        C  0.14814604  0.53186973  0.25979197     0.04100
C713        C  0.14077161  0.54547872  0.20795697     0.18200
C714        C  0.13962678  0.56884884  0.21506917    -0.19800
C715        C  0.13436038  0.53562511  0.14976708    -0.21000
C716        C  0.13505069  0.51254185  0.14198727    -0.19600
C717        C  0.14218663  0.49870013  0.19222076     0.19600
C718        C  0.14895148  0.50822839  0.25174907     0.01800
C719        C  0.15602489  0.49365842  0.30106171    -0.14300
C720        C  0.15586972  0.47068401  0.29235345    -0.12000
C721        C  0.14889945  0.46120326  0.23415540     0.01300
C722        C  0.14232750  0.47535711  0.18377846    -0.24200
H723        H  0.15715560  0.57282966  0.37040696     0.09300
H724        H  0.16009508  0.53356984  0.35934969     0.12900
H725        H  0.13397672  0.57911602  0.17535777     0.11600
H726        H  0.12854481  0.54583776  0.11019477     0.12800
H727        H  0.12977931  0.50546244  0.09652183     0.11800
H728        H  0.16170632  0.49936847  0.34729297     0.08900
H729        H  0.16124139  0.46027258  0.33201198     0.12200
H730        H  0.13696901  0.46823618  0.13841934     0.14000
C731        C  0.07551601  0.64540103  0.29275560    -0.01500
C732        C  0.06190140  0.63862711  0.34377957    -0.09500
C733        C  0.03867176  0.63826115  0.33706789    -0.18300
C734        C  0.02827752  0.64490481  0.27897819     0.04100
C735        C  0.04223901  0.65193536  0.22775581     0.18200
C736        C  0.06544608  0.65211330  0.23505095    -0.19800
C737        C  0.03303410  0.65865002  0.16910084    -0.21000
C738        C  0.01018908  0.65813405  0.15946070    -0.19600
C739        C  0.99594240  0.65108226  0.20844452     0.19600
C740        C  0.00464547  0.64467941  0.26934844     0.01800
C741        C  0.98926765  0.63837406  0.31755886    -0.14300
C742        C  0.96631278  0.63825495  0.30538222    -0.12000
C743        C  0.95797858  0.64403432  0.24465633     0.01300
C744        C  0.97296388  0.65046308  0.19659184    -0.24200
H745        H  0.06921263  0.63343980  0.05583286     0.09300
H746        H  0.02930573  0.63258367  0.04483295     0.12900
H747        H  0.07572379  0.65746801  0.19514887     0.11600
H748        H  0.04361173  0.66422002  0.13016216     0.12800
H749        H  0.00361547  0.66334018  0.11329721     0.11800
H750        H  0.99445429  0.63345564  0.36508044     0.08900
H751        H  0.95507329  0.63329864  0.34343029     0.12200
H752        H  0.96671096  0.65524239  0.14962557     0.14000
C753        C  0.14191092  0.71118555  0.00866250    -0.01500
C754        C  0.14966294  0.72674547  0.96403394    -0.09500
C755        C  0.15049499  0.74942669  0.97958939    -0.18300
C756        C  0.14326010  0.75732923  0.04036963     0.04100
C757        C  0.13537940  0.74141870  0.08533946     0.18200
C758        C  0.13476107  0.71871037  0.06919774    -0.19800
C759        C  0.12830431  0.74819924  0.14646414    -0.21000
C760        C  0.12928150  0.77047822  0.16459269    -0.19600
C761        C  0.13704841  0.78659371  0.12173560     0.19600
C762        C  0.14374965  0.78034067  0.05851480     0.01800
C763        C  0.15042215  0.79743777  0.01614761    -0.14300
C764        C  0.15067686  0.81967195  0.03600772    -0.12000
C765        C  0.14456985  0.82568783  0.09880002     0.01300
C766        C  0.13786288  0.80901040  0.14154283    -0.24200
H767        H  0.15559374  0.72131664  0.91734402     0.09300
H768        H  0.15726221  0.76028217  0.94344194     0.12900
H769        H  0.12874189  0.70681267  0.10424789     0.11600
H770        H  0.12208239  0.73614632  0.18069636     0.12800
H771        H  0.12378332  0.77516446  0.21240144     0.11800
H772        H  0.15526564  0.79423577  0.96710057     0.08900
H773        H  0.15582335  0.83224838  0.00185606     0.12200
H774        H  0.13280003  0.81353081  0.18991809     0.14000
C775        C  0.39313605  0.95956758  0.10151922    -0.01500
C776        C  0.38600505  0.97272837  0.15328503    -0.09500
C777        C  0.38446185  0.99580309  0.14777585    -0.18300
C778        C  0.39051638  0.00672656  0.09028297     0.04100
C779        C  0.39776060  0.99336206  0.03765002     0.18200
C780        C  0.39870698  0.96996167  0.04335477    -0.19800
C781        C  0.40433675  0.00347851  0.98012609    -0.21000
C782        C  0.40400413  0.02660357  0.97381968    -0.19600
C783        C  0.39701810  0.04022378  0.02484104     0.19600
C784        C  0.38999240  0.03042674  0.08364294     0.01800
C785        C  0.38297685  0.04479851  0.13364646    -0.14300
C786        C  0.38353173  0.06782874  0.12637266    -0.12000
C787        C  0.39084970  0.07755157  0.06897062     0.01300
C788        C  0.39729042  0.06360895  0.01787360    -0.24200
H789        H  0.38141574  0.96512435  0.19857329     0.09300
H790        H  0.37866580  0.00455473  0.18981415     0.12900
H791        H  0.40431435  0.95989692  0.00306238     0.11600
H792        H  0.41005164  0.99343573  0.93997290     0.12800
H793        H  0.40943135  0.03388749  0.92887334     0.11800
H794        H  0.37703366  0.03886975  0.17929804     0.08900
H795        H  0.37817954  0.07809529  0.16646864     0.12200
H796        H  0.40289182  0.07092383  0.97311801     0.14000
C797        C  0.46371339  0.89639757  0.10707260    -0.01500
C798        C  0.47196186  0.90301607  0.04719978    -0.09500
C799        C  0.49475074  0.90449951  0.03623517    -0.18300
C800        C  0.51028700  0.89893558  0.08477580     0.04100
C801        C  0.50190561  0.89203641  0.14550734     0.18200
C802        C  0.47876247  0.89118873  0.15648887    -0.19800
C803        C  0.51668180  0.88567154  0.19435714    -0.21000
C804        C  0.53960856  0.88592534  0.18413234    -0.19600
C805        C  0.54836762  0.89279322  0.12506172     0.19600
C806        C  0.53379912  0.89958152  0.07471931     0.01800
C807        C  0.54339298  0.90657424  0.01619127    -0.14300
C808        C  0.56633925  0.90607444  0.00718115    -0.12000
C809        C  0.58068063  0.89898616  0.05625865     0.01300
C810        C  0.57161151  0.89269033  0.11562814    -0.24200
H811        H  0.46067082  0.90726573  0.00837958     0.09300
H812        H  0.49956614  0.90979872  0.98885309     0.12900
H813        H  0.47247618  0.88590704  0.20286703     0.11600
H814        H  0.51046285  0.88016013  0.24053396     0.12800
H815        H  0.55056890  0.88059215  0.22260972     0.11800
H816        H  0.53369037  0.91254293  0.97618604     0.08900
H817        H  0.57285596  0.91141645  0.29445128     0.12200
H818        H  0.58259018  0.88729876  0.15405613     0.14000
C819        C  0.21201298  0.89002304  0.14678494    -0.01500
C820        C  0.22379427  0.88308953  0.20150901    -0.09500
C821        C  0.24701532  0.88304658  0.20244926    -0.18300
C822        C  0.25936306  0.89018092  0.14852849     0.04100
C823        C  0.24734364  0.89709617  0.09295567     0.18200
C824        C  0.22394452  0.89690682  0.09251574    -0.19800
C825        C  0.25873400  0.90425684  0.03816870    -0.21000
C826        C  0.28186167  0.90450161  0.03702775    -0.19600
C827        C  0.29417017  0.89771027  0.09075798     0.19600
C828        C  0.28315731  0.89069338  0.14764949     0.01800
C829        C  0.29648146  0.88463437  0.20113877    -0.14300
C830        C  0.31970872  0.88551407  0.19808870    -0.12000
C831        C  0.33039596  0.89190520  0.14135792     0.01300
C832        C  0.31750587  0.89796714  0.08789046    -0.24200
H833        H  0.21503946  0.87758455  0.24410285     0.09300
H834        H  0.25476657  0.87726922  0.24609332     0.12900
H835        H  0.21502704  0.90229080  0.04987734     0.11600
H836        H  0.24968737  0.90970940  0.99586677     0.12800
H837        H  0.29019332  0.91017204  0.99389390     0.11800
H838        H  0.28950217  0.87915596  0.24604220     0.08900
H839        H  0.32935547  0.88073881  0.23994784     0.12200
H840        H  0.32568067  0.90317696  0.04395334     0.14000
C841        C  0.39333585  0.58199291  0.33753190    -0.01500
C842        C  0.39940679  0.57382462  0.39816990    -0.09500
C843        C  0.39884239  0.55089711  0.07759321    -0.18300
C844        C  0.39202784  0.53544267  0.02993896     0.04100
C845        C  0.38536007  0.54403972  0.96917678     0.18200
C846        C  0.38618509  0.56696192  0.29034183    -0.19800
C847        C  0.37799530  0.52975720  0.92052030    -0.21000
C848        C  0.37746085  0.50692857  0.93028447    -0.19600
C849        C  0.38440264  0.49780649  0.98879508     0.19600
C850        C  0.39167486  0.51182651  0.03979419     0.01800
C851        C  0.39849771  0.50149151  0.09777161    -0.14300
C852        C  0.39827508  0.47824284  0.10433567    -0.12000
C853        C  0.39139814  0.46458535  0.05334089     0.01300
C854        C  0.38431537  0.47460530  0.99601330    -0.24200
H855        H  0.40490163  0.58514400  0.43552381     0.09300
H856        H  0.40394475  0.54578130  0.12503415     0.12900
H857        H  0.38114456  0.57311602  0.24349418     0.11600
H858        H  0.37265515  0.53630952  0.20784244     0.12800
H859        H  0.37176745  0.49629634  0.89148348     0.11800
H860        H  0.40433910  0.51090177  0.13854537     0.08900
H861        H  0.40384397  0.47094450  0.14918937     0.12200
H862        H  0.37886130  0.46428263  0.95619677     0.14000
C863        C  0.46262831  0.64600512  0.29257675    -0.01500
C864        C  0.47555652  0.63891294  0.24015896    -0.09500
C865        C  0.49890346  0.63856922  0.24412405    -0.18300
C866        C  0.51003821  0.64550786  0.30079472     0.04100
C867        C  0.49671733  0.65283614  0.01997275     0.18200
C868        C  0.47347107  0.65297568  0.01538350    -0.19800
C869        C  0.50657066  0.65992607  0.07732619    -0.21000
C870        C  0.52950832  0.65970497  0.08426055    -0.19600
C871        C  0.54317924  0.65250314  0.03387668     0.19600
C872        C  0.53379194  0.64545350  0.30774146     0.01800
C873        C  0.54865368  0.63878378  0.25828697    -0.14300
C874        C  0.57178111  0.63891528  0.26800323    -0.12000
C875        C  0.58075296  0.64542309  0.99405832     0.01300
C876        C  0.56627053  0.65224162  0.04314072    -0.24200
H877        H  0.46762835  0.63345981  0.19610624     0.09300
H878        H  0.50778263  0.63270755  0.20230133     0.12900
H879        H  0.46375860  0.65858144  0.05635611     0.11600
H880        H  0.49643824  0.66559743  0.11733752     0.12800
H881        H  0.53660840  0.66520812  0.12947808     0.11800
H882        H  0.54290112  0.63336690  0.21174607     0.08900
H883        H  0.58265224  0.63360491  0.22926994     0.12200
H884        H  0.57301436  0.65752277  0.08908100     0.14000
C885        C  0.32819951  0.64816663  0.29753784    -0.01500
C886        C  0.31737706  0.65496019  0.35413335    -0.09500
C887        C  0.29419343  0.65462549  0.35892262    -0.18300
C888        C  0.28088106  0.64726326  0.30709957     0.04100
C889        C  0.29189749  0.64053420  0.24956863     0.18200
C890        C  0.31527643  0.64109959  0.24525088    -0.19800
C891        C  0.27952563  0.63315685  0.19671030    -0.21000
C892        C  0.25641102  0.63254772  0.19935971    -0.19600
C893        C  0.24506590  0.63921655  0.25499100     0.19600
C894        C  0.25708178  0.64638908  0.31009560     0.01800
C895        C  0.24471501  0.65236902  0.03223488    -0.14300
C896        C  0.22143219  0.65138208  0.03268519    -0.12000
C897        C  0.20971799  0.64490413  0.31087823     0.01300
C898        C  0.22169228  0.63879654  0.25564530    -0.24200
H899        H  0.32688851  0.66067650  0.06175522     0.09300
H900        H  0.28724523  0.66036211  0.07033011     0.12900
H901        H  0.32340998  0.63580587  0.20120635     0.11600
H902        H  0.28778472  0.62783745  0.15292137     0.12800
H903        H  0.24732149  0.62676022  0.15756949     0.11800
H904        H  0.25251375  0.65793994  0.07599086     0.08900
H905        H  0.21253835  0.65623348  0.07586605     0.12200
H906        H  0.21276107  0.63356675  0.21289631     0.14000
C907        C  0.39668222  0.71184976  0.24087689    -0.01500
C908        C  0.39060723  0.71822967  0.17842994    -0.09500
C909        C  0.39115858  0.74057262  0.15978794    -0.18300
C910        C  0.39806395  0.75736306  0.20314193     0.04100
C911        C  0.40475517  0.75068393  0.26592748     0.18200
C912        C  0.40374084  0.72820113  0.28435511    -0.19800
C913        C  0.41254413  0.76645912  0.30998013    -0.21000
C914        C  0.41345741  0.78886278  0.29357664    -0.19600
C915        C  0.40637800  0.79608386  0.23294578     0.19600
C916        C  0.39862799  0.78049259  0.18663168     0.01800
C917        C  0.39151998  0.78882925  0.12630254    -0.14300
C918        C  0.39215607  0.81164319  0.11266850    -0.12000
C919        C  0.39961574  0.82690310  0.15878577     0.01300
C920        C  0.40678875  0.81892681  0.21873412    -0.24200
H921        H  0.38521307  0.70588821  0.14373616     0.09300
H922        H  0.38623835  0.74411634  0.11102253     0.12900
H923        H  0.40877557  0.72339197  0.33248727     0.11600
H924        H  0.41797128  0.76143147  0.35753538     0.12800
H925        H  0.41957155  0.80066945  0.32882776     0.11800
H926        H  0.38501443  0.77821414  0.08903365     0.08900
H927        H  0.38629283  0.81739662  0.06627737     0.12200
H928        H  0.41260668  0.83057589  0.25489892     0.14000
O929        O  0.39518787  0.62075372  0.69992002    -0.74600
O930        O  0.39630255  0.68275154  0.65290795    -0.74600
O931        O  0.36395204  0.65265674  0.67846380    -0.74700
O932        O  0.42735861  0.65103424  0.67568362    -0.74800
O933        O  0.42723907  0.64174239  0.57195339    -0.74700
O934        O  0.36295079  0.64316454  0.57489719    -0.74700
O935        O  0.39540607  0.67316697  0.54934381    -0.74600
O936        O  0.39453376  0.61176009  0.59591446    -0.74700
Ni937      Ni  0.39572539  0.65214095  0.68036898     1.25400
Ni938      Ni  0.39502547  0.64212756  0.56931223     1.25400
C939        C  0.39448314  0.60602446  0.65515331     0.87600
C940        C  0.39605666  0.68813378  0.59320432     0.87500
C941        C  0.35288010  0.64804411  0.62761122     0.87500
C942        C  0.43788105  0.64623653  0.62394665     0.87700
O943        O  0.39441922  0.92210410  0.39414250    -0.74600
O944        O  0.39678992  0.85866577  0.42204674    -0.74600
O945        O  0.36400349  0.88985583  0.41505477    -0.74700
O946        O  0.42721129  0.89119053  0.39979214    -0.74800
O947        O  0.43060663  0.89712714  0.50520873    -0.74700
O948        O  0.36678976  0.89463120  0.52110930    -0.74700
O949        O  0.40052092  0.86460111  0.52731165    -0.74600
O950        O  0.39676488  0.92733399  0.50008395    -0.74700
Ni951      Ni  0.39552812  0.89019655  0.40402249     1.25400
Ni952      Ni  0.39879434  0.89612315  0.51717933     1.25400
C953        C  0.39492415  0.93515173  0.44305747     0.87600
C954        C  0.39902577  0.85121897  0.47956580     0.87500
C955        C  0.35491194  0.89210370  0.47031855     0.87500
C956        C  0.43935080  0.89472984  0.44933037     0.87700
O957        O  0.14349082  0.61675309  0.56892860    -0.74600
O958        O  0.14356525  0.68002036  0.60225743    -0.74600
O959        O  0.17522728  0.64783753  0.58882964    -0.74700
O960        O  0.11174765  0.64889713  0.58092936    -0.74800
O961        O  0.10971566  0.64146904  0.35236602    -0.74700
O962        O  0.17384625  0.64261995  0.36151299    -0.74700
O963        O  0.14073977  0.67320719  0.37389205    -0.74600
O964        O  0.14286935  0.61074124  0.67463090    -0.74700
Ni965      Ni  0.14353821  0.64863191  0.58148000     1.25400
Ni966      Ni  0.14171841  0.64177346  0.36100478     1.25400
C967        C  0.14365307  0.60333354  0.61691605     0.87600
C968        C  0.14202013  0.68697861  0.66055367     0.87500
C969        C  0.18506204  0.64511561  0.64286624     0.87500
C970        C  0.10016404  0.64522554  0.63144870     0.87700
O971        O  0.14564094  0.91726688  0.55728237    -0.74600
O972        O  0.14498638  0.85491245  0.51129801    -0.74600
O973        O  0.17710315  0.88569273  0.53271199    -0.74700
O974        O  0.11375243  0.88629161  0.53715696    -0.74800
O975        O  0.11240470  0.89527344  0.43332186    -0.74700
O976        O  0.17646302  0.89483251  0.42892814    -0.74700
O977        O  0.14430751  0.86431584  0.40768042    -0.74600
O978        O  0.14477527  0.92585870  0.45310636    -0.74700
Ni979      Ni  0.14540156  0.88571422  0.53831572     1.25400
Ni980      Ni  0.14443210  0.89539301  0.42709922     1.25400
C981        C  0.14548030  0.93184997  0.51216870     0.87600
C982        C  0.14460800  0.84941264  0.45158391     0.87500
C983        C  0.18732816  0.89017454  0.48038370     0.87500
C984        C  0.10254690  0.89078697  0.48644375     0.87700
O985        O  0.42148949  0.39775049  0.32372473    -0.74600
O986        O  0.35890468  0.39556637  0.36392920    -0.74600
O987        O  0.38862612  0.42838733  0.34052908    -0.74700
O988        O  0.39182122  0.36485545  0.34608459    -0.74800
O989        O  0.39929197  0.36630201  0.45105692    -0.74700
O990        O  0.39656345  0.43037404  0.44502711    -0.74700
O991        O  0.36703052  0.39721405  0.46841834    -0.74600
O992        O  0.42894473  0.39942670  0.42860094    -0.74700
Ni993      Ni  0.38990463  0.39658412  0.33985768     1.25400
Ni994      Ni  0.39825023  0.39837965  0.45195934     1.25400
C995        C  0.43553553  0.39910568  0.37005035     0.87600
C996        C  0.35270803  0.39594030  0.42301586     0.87500
C997        C  0.39219217  0.43993764  0.39131921     0.87500
C998        C  0.39598744  0.35506288  0.39938985     0.87700
O999        O  0.11929040  0.39416926  0.62423034    -0.74600
O1000       O  0.18227670  0.39221028  0.59047017    -0.74600
O1001       O  0.15186028  0.42486222  0.61173728    -0.74700
O1002       O  0.14963539  0.36148280  0.60418595    -0.74800
O1003       O  0.14423016  0.36298305  0.49819655    -0.74700
O1004       O  0.14420584  0.42718280  0.50713531    -0.74700
O1005       O  0.17543263  0.39522824  0.48550732    -0.74600
O1006       O  0.11288461  0.39487356  0.51867730    -0.74700
Ni1007     Ni  0.15102363  0.39313259  0.61135005     1.25400
Ni1008     Ni  0.14394379  0.39513482  0.49858966     1.25400
C1009       C  0.10569573  0.39447890  0.57663490     0.87600
C1010       C  0.18922020  0.39363127  0.53225362     0.87500
C1011       C  0.14828811  0.43657374  0.56135623     0.87500
C1012       C  0.14659856  0.35171203  0.55020207     0.87700
O1013       O  0.42199688  0.14454746  0.46116345    -0.74600
O1014       O  0.35856219  0.14604908  0.43144872    -0.74600
O1015       O  0.38941033  0.11361549  0.44923412    -0.74700
O1016       O  0.39083280  0.17694873  0.44494248    -0.74800
O1017       O  0.39674917  0.17627730  0.67251812    -0.74700
O1018       O  0.39533132  0.11191769  0.34359514    -0.74700
O1019       O  0.36475899  0.14469540  0.65926503    -0.74600
O1020       O  0.42735747  0.14325578  0.35521096    -0.74700
Ni1021     Ni  0.39001364  0.14533575  0.45042388     1.25400
Ni1022     Ni  0.39626785  0.14402456  0.67057302     1.25400
C1023       C  0.43512690  0.14347775  0.41250522     0.87600
C1024       C  0.35126511  0.14540755  0.37342401     0.87500
C1025       C  0.39196020  0.10221097  0.39768055     0.87500
C1026       C  0.39384687  0.18719249  0.39183640     0.87700
O1027       O  0.11990081  0.14101437  0.49417502    -0.74600
O1028       O  0.18203100  0.14107404  0.53932825    -0.74600
O1029       O  0.15117015  0.10934433  0.51795659    -0.74700
O1030       O  0.15095490  0.17274707  0.51440157    -0.74800
O1031       O  0.14187500  0.17384123  0.61821861    -0.74700
O1032       O  0.14229383  0.10945623  0.62191453    -0.74700
O1033       O  0.17291112  0.14196891  0.64317125    -0.74600
O1034       O  0.11126248  0.14169789  0.59836706    -0.74700
Ni1035     Ni  0.15132828  0.14099265  0.51285462     1.25400
Ni1036     Ni  0.14176023  0.14172776  0.62417361     1.25400
C1037       C  0.10532347  0.14168682  0.53923467     0.87600
C1038       C  0.18768707  0.14169003  0.59881856     0.87500
C1039       C  0.14693068  0.09880429  0.56991767     0.87500
C1040       C  0.14633381  0.18386398  0.56526700     0.87700
O1041       O  0.64520792  0.42224801  0.36344965    -0.74600
O1042       O  0.64326271  0.35877902  0.66593451    -0.74600
O1043       O  0.67591063  0.38978650  0.67895402    -0.74700
O1044       O  0.61262968  0.39162365  0.68555866    -0.74800
O1045       O  0.61084359  0.39751928  0.57987266    -0.74700
O1046       O  0.67508738  0.39552536  0.57307171    -0.74700
O1047       O  0.64214882  0.36519316  0.56045256    -0.74600
O1048       O  0.64414441  0.42780030  0.59086542    -0.74700
Ni1049     Ni  0.64426810  0.39030312  0.68550070     1.25400
Ni1050     Ni  0.64296090  0.39668388  0.57229352     1.25400
C1051       C  0.64532182  0.43544158  0.64827680     0.87600
C1052       C  0.64263454  0.35158907  0.60771292     0.87500
C1053       C  0.68601609  0.39280823  0.62557885     0.87500
C1054       C  0.60125012  0.39535547  0.63466908     0.87700
O1055       O  0.64499342  0.12099018  0.38104233    -0.74600
O1056       O  0.64492227  0.18306609  0.42870966    -0.74600
O1057       O  0.67667632  0.15157472  0.40555655    -0.74700
O1058       O  0.61316311  0.15210148  0.40257796    -0.74800
O1059       O  0.61209245  0.14304576  0.50648405    -0.74700
O1060       O  0.67626176  0.14267077  0.50961798    -0.74700
O1061       O  0.64395118  0.17354376  0.53219821    -0.74600
O1062       O  0.64418021  0.11205835  0.48499267    -0.74700
Ni1063     Ni  0.64496086  0.15234891  0.40085830     1.25400
Ni1064     Ni  0.64413527  0.14251074  0.51201548     1.25400
C1065       C  0.64440923  0.10627813  0.42566473     0.87600
C1066       C  0.64432016  0.18850519  0.48847673     0.87500
C1067       C  0.68697987  0.14676053  0.45758647     0.87500
C1068       C  0.60212242  0.14727421  0.45328938     0.87700
O1069       O  0.89550895  0.41999244  0.55537275    -0.74600
O1070       O  0.89632487  0.35771926  0.59949038    -0.74600
O1071       O  0.86403708  0.38872246  0.57869010    -0.74700
O1072       O  0.92763825  0.38887925  0.57529171    -0.74800
O1073       O  0.92860599  0.39770980  0.34602852    -0.74700
O1074       O  0.86459257  0.39757488  0.34945284    -0.74700
O1075       O  0.89684874  0.36678474  0.37013009    -0.74600
O1076       O  0.89609709  0.42844090  0.65977603    -0.74700
Ni1077     Ni  0.89585995  0.38850080  0.57349453     1.25400
Ni1078     Ni  0.89658099  0.39793419  0.35169181     1.25400
C1079       C  0.89550110  0.43448687  0.60081345     0.87600
C1080       C  0.89661365  0.35203659  0.65895487     0.87500
C1081       C  0.85375556  0.39319812  0.63112953     0.87500
C1082       C  0.93868491  0.39331467  0.62637907     0.87700
O1083       O  0.89641641  0.11847287  0.52716425    -0.74600
O1084       O  0.89564850  0.18169179  0.49535941    -0.74600
O1085       O  0.86437558  0.14966550  0.50696693    -0.74700
O1086       O  0.92776049  0.15062569  0.51660586    -0.74800
O1087       O  0.93020830  0.14414851  0.41130694    -0.74700
O1088       O  0.86618380  0.14327961  0.40151974    -0.74700
O1089       O  0.89800081  0.17504649  0.39009340    -0.74600
O1090       O  0.89864529  0.11251484  0.42154887    -0.74700
Ni1091     Ni  0.89597705  0.15034962  0.51527220     1.25400
Ni1092     Ni  0.89830051  0.14353673  0.40237299     1.25400
C1093       C  0.89782955  0.10507915  0.47912409     0.87600
C1094       C  0.89680731  0.18874180  0.43723047     0.87500
C1095       C  0.85473252  0.14629745  0.45297384     0.87500
C1096       C  0.93951672  0.14746585  0.46600550     0.87700
O1097       O  0.61904956  0.64512105  0.29335963    -0.74600
O1098       O  0.68182340  0.64623504  0.33283946    -0.74600
O1099       O  0.65144558  0.61402108  0.30994141    -0.74700
O1100       O  0.64942073  0.67751251  0.31480215    -0.74800
O1101       O  0.64236621  0.67661456  0.42002535    -0.74700
O1102       O  0.64327856  0.61236605  0.41428276    -0.74700
O1103       O  0.67370175  0.64473685  0.43730389    -0.74600
O1104       O  0.61170682  0.64451282  0.39837469    -0.74700
Ni1105     Ni  0.65072388  0.64575759  0.30902739     1.25400
Ni1106     Ni  0.64246808  0.64448946  0.42119237     1.25400
C1107       C  0.60502989  0.64489397  0.33992208     0.87600
C1108       C  0.68803749  0.64569436  0.39193234     0.87500
C1109       C  0.64771503  0.60262357  0.36072361     0.87500
C1110       C  0.64564743  0.68759349  0.36799061     0.87700
O1111       O  0.91952998  0.64322178  0.60986219    -0.74600
O1112       O  0.85703953  0.64413179  0.56910871    -0.74600
O1113       O  0.88797010  0.61194141  0.59025347    -0.74700
O1114       O  0.88844086  0.67532228  0.58980024    -0.74800
O1115       O  0.89603400  0.67531331  0.48494445    -0.74700
O1116       O  0.89658046  0.61103724  0.48610572    -0.74700
O1117       O  0.86523262  0.64301824  0.46462946    -0.74600
O1118       O  0.92735333  0.64342405  0.50513126    -0.74700
Ni1119     Ni  0.88795729  0.64363472  0.59339518     1.25400
Ni1120     Ni  0.89658772  0.64317214  0.48142375     1.25400
C1121       C  0.93376678  0.64345284  0.56388032     0.87600
C1122       C  0.85085314  0.64377390  0.51003979     0.87500
C1123       C  0.89226822  0.60092344  0.53895305     0.87500
C1124       C  0.89221097  0.68588099  0.53760688     0.87700
O1125       O  0.61886644  0.89747252  0.42390536    -0.74600
O1126       O  0.68159624  0.89856317  0.38523188    -0.74600
O1127       O  0.64939092  0.92965901  0.40563247    -0.74700
O1128       O  0.65102320  0.86627645  0.40519982    -0.74800
O1129       O  0.64250899  0.86577307  0.63445173    -0.74700
O1130       O  0.64281123  0.93011643  0.63365012    -0.74700
O1131       O  0.67361658  0.89751526  0.61409523    -0.74600
O1132       O  0.61160955  0.89843151  0.31883064    -0.74700
Ni1133     Ni  0.65053256  0.89798651  0.40867866     1.25400
Ni1134     Ni  0.64238577  0.89793577  0.62988140     1.25400
C1135       C  0.60489868  0.89819334  0.37721589     0.87600
C1136       C  0.68787371  0.89800999  0.32622187     0.87500
C1137       C  0.64563308  0.94040843  0.35365717     0.87500
C1138       C  0.64683895  0.85545370  0.35358892     0.87700
O1139       O  0.92295488  0.89455774  0.47346137    -0.74600
O1140       O  0.85941946  0.89587084  0.49848189    -0.74600
O1141       O  0.89162515  0.92694035  0.48106233    -0.74700
O1142       O  0.89107019  0.86348826  0.48942297    -0.74800
O1143       O  0.89520214  0.86503483  0.59589229    -0.74700
O1144       O  0.89685890  0.92909549  0.58704589    -0.74700
O1145       O  0.86471894  0.89834271  0.60433684    -0.74600
O1146       O  0.92744869  0.89570761  0.57984374    -0.74700
Ni1147     Ni  0.89103059  0.89517559  0.48182536     1.25400
Ni1148     Ni  0.89622623  0.89711855  0.59553494     1.25400
C1149       C  0.93563112  0.89457446  0.52311687     0.87600
C1150       C  0.85165367  0.89743061  0.55586331     0.87500
C1151       C  0.89467089  0.93851091  0.53205814     0.87500
C1152       C  0.89318567  0.85373732  0.54374914     0.87700
C1153       C  0.71184799  0.89791639  0.64298127    -0.01500
C1154       C  0.71860629  0.89179785  0.58083587    -0.09500
C1155       C  0.74106007  0.89167005  0.56374970    -0.18300
C1156       C  0.75764707  0.89791720  0.60838702     0.04100
C1157       C  0.75063655  0.90458841  0.33758732     0.18200
C1158       C  0.72797333  0.90425964  0.35447070    -0.19800
C1159       C  0.76627778  0.91179968  0.38279417    -0.21000
C1160       C  0.78879742  0.91220224  0.36762236    -0.19600
C1161       C  0.79628342  0.90516553  0.64049239     0.19600
C1162       C  0.78086209  0.89790002  0.59316945     0.01800
C1163       C  0.78942319  0.89074974  0.53305092    -0.14300
C1164       C  0.81229246  0.89101244  0.52045245    -0.12000
C1165       C  0.82735947  0.89809158  0.56747035     0.01300
C1166       C  0.81917755  0.90518931  0.62732477    -0.24200
H1167       H  0.70645503  0.88690572  0.54503233     0.09300
H1168       H  0.74483534  0.88678711  0.51506948     0.12900
H1169       H  0.72288200  0.90931738  0.40238031     0.11600
H1170       H  0.76104957  0.91724463  0.43019381     0.12800
H1171       H  0.80048947  0.91796076  0.40363630     0.11800
H1172       H  0.77894326  0.88452947  0.49510288     0.08900
H1173       H  0.81822605  0.88521179  0.47413057     0.12200
H1174       H  0.83069770  0.91072934  0.66414978     0.14000
C1175       C  0.89336566  0.82911570  0.54553665    -0.01500
C1176       C  0.88727332  0.81770223  0.60133387    -0.09500
C1177       C  0.88659599  0.79443119  0.60206398    -0.23100
C1178       C  0.89258287  0.78175839  0.54712860     0.04100
C1179       C  0.89931021  0.79347675  0.49116221     0.18200
C1180       C  0.89939524  0.81687585  0.49063876    -0.19800
C1181       C  0.90592984  0.78179827  0.43600161    -0.21000
C1182       C  0.90568252  0.75863137  0.43471679    -0.19600
C1183       C  0.89878810  0.74655754  0.48855942     0.19600
C1184       C  0.89220187  0.75793840  0.54566116     0.01800
C1185       C  0.88550220  0.74496122  0.59874886    -0.14300
C1186       C  0.88561952  0.72175978  0.59558063    -0.12000
C1187       C  0.89210325  0.71057114  0.53928197     0.01300
C1188       C  0.89856367  0.72312382  0.48573849    -0.24200
H1189       H  0.88252296  0.82681229  0.64427307     0.09300
H1190       H  0.88122952  0.78690580  0.64631560     0.12900
H1191       H  0.90436973  0.82560034  0.44737092     0.11600
H1192       H  0.91144775  0.79066314  0.39361169     0.12800
H1193       H  0.91099583  0.75009221  0.39135278     0.11800
H1194       H  0.87999344  0.75218614  0.64345639     0.08900
H1195       H  0.88045045  0.71254692  0.63771324     0.12200
H1196       H  0.90362046  0.71467230  0.44193190     0.14000
C1197       C  0.64524841  0.71222376  0.36864922    -0.01500
C1198       C  0.65137305  0.72404796  0.42384543    -0.09500
C1199       C  0.65223071  0.74732195  0.42324828    -0.18300
C1200       C  0.64634873  0.75959045  0.36757552     0.04100
C1201       C  0.63951485  0.74746062  0.31229707     0.18200
C1202       C  0.63933648  0.72404885  0.31303335    -0.19800
C1203       C  0.63286100  0.75874561  0.25660059    -0.21000
C1204       C  0.63309878  0.78190988  0.25417151    -0.19600
C1205       C  0.64011486  0.79438433  0.30729741     0.19600
C1206       C  0.64687045  0.78340104  0.36478615     0.01800
C1207       C  0.65387334  0.79674592  0.41693839    -0.14300
C1208       C  0.65383568  0.81992095  0.41258958    -0.12000
C1209       C  0.64704495  0.83074586  0.35608995     0.01300
C1210       C  0.64030876  0.81781637  0.30338761    -0.24200
H1211       H  0.65608309  0.71524268  0.46726086     0.09300
H1212       H  0.65759793  0.75517686  0.46711876     0.12900
H1213       H  0.63437660  0.71497964  0.27023113     0.11600
H1214       H  0.62733701  0.74954657  0.54824432     0.12800
H1215       H  0.62777456  0.79010077  0.54393714     0.11800
H1216       H  0.65956659  0.78983345  0.46180532     0.08900
H1217       H  0.65924423  0.82940688  0.45407553     0.12200
H1218       H  0.63503445  0.82596930  0.25940605     0.14000
C1219       C  0.82683448  0.64446453  0.49384267    -0.01500
C1220       C  0.81129967  0.65229155  0.53877969    -0.09500
C1221       C  0.78865585  0.65333809  0.52369999    -0.18300
C1222       C  0.78067772  0.64618387  0.46307878     0.04100
C1223       C  0.79654495  0.63850490  0.41729207     0.18200
C1224       C  0.81933354  0.63778818  0.43287983    -0.19800
C1225       C  0.78957767  0.63154808  0.35625195    -0.21000
C1226       C  0.76716760  0.63228695  0.33928340    -0.19600
C1227       C  0.75109670  0.63966784  0.38326202     0.19600
C1228       C  0.75758462  0.64641729  0.44617721     0.01800
C1229       C  0.74062691  0.65275557  0.48974314    -0.14300
C1230       C  0.71828372  0.65251738  0.47151115    -0.12000
C1231       C  0.71196193  0.64624419  0.40918091     0.01300
C1232       C  0.72850170  0.63998178  0.36505617    -0.24200
H1233       H  0.81671360  0.65799124  0.58568172     0.09300
H1234       H  0.77787722  0.66006063  0.56036569     0.12900
H1235       H  0.83124579  0.63183034  0.39752888     0.11600
H1236       H  0.80156347  0.62548201  0.32133527     0.12800
H1237       H  0.76234117  0.62681679  0.29159631     0.11800
H1238       H  0.74400207  0.65765775  0.53862559     0.08900
H1239       H  0.70584527  0.65738026  0.50665374     0.12200
H1240       H  0.72375447  0.63483050  0.31697344     0.14000
C1241       C  0.89612316  0.96298603  0.52587949    -0.01500
C1242       C  0.90290861  0.97206970  0.46720952    -0.09500
C1243       C  0.90436465  0.99500921  0.45900214    -0.18300
C1244       C  0.89859733  0.00987436  0.50918110     0.04100
C1245       C  0.89149584  0.00065653  0.56867662     0.18200
C1246       C  0.89065162  0.97735313  0.57686477    -0.19800
C1247       C  0.88499635  0.01477073  0.61911537    -0.21000
C1248       C  0.88532550  0.03784871  0.61166933    -0.19600
C1249       C  0.89234675  0.04741561  0.55379729     0.19600
C1250       C  0.89926826  0.03352328  0.50192490     0.01800
C1251       C  0.90640150  0.04389967  0.44468145    -0.14300
C1252       C  0.90594414  0.06696273  0.43833719    -0.12000
C1253       C  0.89872587  0.08066071  0.48888137     0.01300
C1254       C  0.89225111  0.07079565  0.54703476    -0.24200
H1255       H  0.90736585  0.96132362  0.42722754     0.09300
H1256       H  0.90987056  0.00047141  0.41242455     0.12900
H1257       H  0.88524199  0.97041878  0.62233188     0.11600
H1258       H  0.87934162  0.00791625  0.66437922     0.12800
H1259       H  0.87993455  0.04829015  0.65135663     0.11800
H1260       H  0.91241089  0.03473952  0.40360282     0.08900
H1261       H  0.91136576  0.07410312  0.39319679     0.12200
H1262       H  0.88672482  0.08126050  0.58656266     0.14000
C1263       C  0.89453120  0.45859687  0.58634158    -0.01500
C1264       C  0.90045569  0.46700434  0.52594307    -0.09500
C1265       C  0.90013598  0.49001895  0.51432835    -0.18300
C1266       C  0.89351892  0.50529301  0.56285697     0.04100
C1267       C  0.88697383  0.49644025  0.62333478     0.18200
C1268       C  0.88771817  0.47346859  0.63449456    -0.19800
C1269       C  0.87970994  0.51051596  0.67275884    -0.21000
C1270       C  0.87903948  0.53337480  0.66394240    -0.19600
C1271       C  0.88579786  0.54272812  0.60569555     0.19600
C1272       C  0.89312202  0.52895970  0.55406391     0.01800
C1273       C  0.89986464  0.53958471  0.49653276    -0.14300
C1274       C  0.89934646  0.56288113  0.49088425    -0.12000
C1275       C  0.89223948  0.57624588  0.54239732     0.01300
C1276       C  0.88538734  0.56592138  0.59936251    -0.24200
H1277       H  0.90571874  0.45579813  0.48789460     0.09300
H1278       H  0.90516335  0.49534706  0.46708688     0.12900
H1279       H  0.88280344  0.46712602  0.68117147     0.11600
H1280       H  0.87446801  0.50383308  0.38530337     0.12800
H1281       H  0.87332965  0.54384442  0.70322307     0.11800
H1282       H  0.90582330  0.53035841  0.45543518     0.08900
H1283       H  0.90476878  0.57043371  0.44633452     0.12200
H1284       H  0.87978350  0.57600016  0.63964369     0.14000
C1285       C  0.89661797  0.32820325  0.34371473    -0.01500
C1286       C  0.89056207  0.32186286  0.40612303    -0.09500
C1287       C  0.89035572  0.29945447  0.42401052    -0.18300
C1288       C  0.89650010  0.28252779  0.37995463     0.04100
C1289       C  0.90320996  0.28911731  0.31719238     0.18200
C1290       C  0.90286822  0.31170970  0.63278743    -0.19800
C1291       C  0.91038272  0.27315221  0.60595780    -0.21000
C1292       C  0.91080912  0.25067681  0.28863844    -0.19600
C1293       C  0.90372545  0.24358451  0.34929425     0.19600
C1294       C  0.89641715  0.25935372  0.39592586     0.01800
C1295       C  0.88918133  0.25117110  0.45617208    -0.14300
C1296       C  0.88956692  0.22835965  0.46976278    -0.12000
C1297       C  0.89683114  0.21294518  0.42362436     0.01300
C1298       C  0.90384096  0.22072319  0.36342143    -0.24200
H1299       H  0.88573587  0.33430129  0.44138332     0.09300
H1300       H  0.88551702  0.29597351  0.47283477     0.12900
H1301       H  0.90785912  0.31647957  0.58464654     0.11600
H1302       H  0.91584074  0.27809072  0.55842717     0.12800
H1303       H  0.91659773  0.23874179  0.58648218     0.11800
H1304       H  0.88283863  0.26192145  0.49351090     0.08900
H1305       H  0.88379393  0.22274298  0.51630715     0.12200
H1306       H  0.90950060  0.20893215  0.32726739     0.14000
C1307       C  0.64409800  0.96495908  0.35753779    -0.01500
C1308       C  0.64991288  0.97871116  0.30595516    -0.09500
C1309       C  0.64964787  0.00198471  0.31295133    -0.18300
C1310       C  0.64308190  0.01212680  0.37164310     0.04100
C1311       C  0.63648694  0.99790230  0.42274229     0.18200
C1312       C  0.63717973  0.97473632  0.41535635    -0.19800
C1313       C  0.62946776  0.00677941  0.48153989    -0.21000
C1314       C  0.62949898  0.02959370  0.49180109    -0.19600
C1315       C  0.63648560  0.04409203  0.44341929     0.19600
C1316       C  0.64304273  0.03573193  0.38217394     0.01800
C1317       C  0.64942402  0.05139989  0.33483339    -0.14300
C1318       C  0.64961154  0.07430292  0.34838843    -0.12000
C1319       C  0.64370720  0.08224039  0.40953433     0.01300
C1320       C  0.63702894  0.06697816  0.45646659    -0.24200
H1321       H  0.65530825  0.97144723  0.59427047     0.09300
H1322       H  0.65492486  0.01157943  0.27202951     0.12900
H1323       H  0.63232032  0.96418633  0.45523396     0.11600
H1324       H  0.62412625  0.99596246  0.52019725     0.12800
H1325       H  0.62417549  0.03593229  0.53819192     0.11800
H1326       H  0.65446144  0.04646271  0.28713686     0.08900
H1327       H  0.65473398  0.08579547  0.31117360     0.12200
H1328       H  0.63212473  0.07293266  0.50370224     0.14000
C1329       C  0.71155448  0.14569335  0.45639401    -0.01500
C1330       C  0.72255252  0.13926071  0.39987917    -0.09500
C1331       C  0.74576244  0.13840040  0.39715327    -0.18300
C1332       C  0.75884935  0.14463918  0.45067326     0.04100
C1333       C  0.74755527  0.15134576  0.50780891     0.18200
C1334       C  0.72414611  0.15143463  0.51051425    -0.19800
C1335       C  0.75967492  0.15824288  0.56163973    -0.21000
C1336       C  0.78279978  0.15851961  0.56026827    -0.19600
C1337       C  0.79440518  0.15180376  0.50513147     0.19600
C1338       C  0.78267453  0.14473744  0.44943187     0.01800
C1339       C  0.79534753  0.13823544  0.39500709    -0.14300
C1340       C  0.81863170  0.13897251  0.39582365    -0.12000
C1341       C  0.83006075  0.14589219  0.45101456     0.01300
C1342       C  0.81775643  0.15223154  0.50548365    -0.24200
H1343       H  0.71311544  0.13460101  0.35755216     0.09300
H1344       H  0.75292674  0.13294076  0.35232684     0.12900
H1345       H  0.71570495  0.15657528  0.55424414     0.11600
H1346       H  0.75119508  0.16369607  0.60492324     0.12800
H1347       H  0.79168664  0.16412667  0.60262841     0.11800
H1348       H  0.78779358  0.13243024  0.35114095     0.08900
H1349       H  0.82770840  0.13388397  0.35319629     0.12200
H1350       H  0.82636831  0.15765617  0.54855796     0.14000
C1351       C  0.64719421  0.45985906  0.65721179    -0.01500
C1352       C  0.65467774  0.47290769  0.60590548    -0.09500
C1353       C  0.65611060  0.49596879  0.61144264    -0.18300
C1354       C  0.64973955  0.50704061  0.33528778     0.04100
C1355       C  0.64242437  0.49379847  0.38779548     0.18200
C1356       C  0.64146417  0.47038508  0.38197124    -0.19800
C1357       C  0.63577613  0.50406286  0.44526808    -0.21000
C1358       C  0.63601115  0.52720311  0.45151709    -0.19600
C1359       C  0.64286877  0.54070518  0.40040361     0.19600
C1360       C  0.64993295  0.53076421  0.34163452     0.01800
C1361       C  0.65640570  0.54501539  0.62448523    -0.14300
C1362       C  0.65565851  0.56806196  0.63161563    -0.12000
C1363       C  0.64867787  0.57794582  0.35598385     0.01300
C1364       C  0.64242966  0.56411268  0.40724574    -0.24200
H1365       H  0.65956997  0.46523028  0.56082507     0.09300
H1366       H  0.66219690  0.50459566  0.56973114     0.12900
H1367       H  0.63568291  0.46042155  0.42201674     0.11600
H1368       H  0.63009693  0.49412828  0.48544479     0.12800
H1369       H  0.63052468  0.53459793  0.49641388     0.11800
H1370       H  0.66211380  0.53899050  0.57855322     0.08900
H1371       H  0.66070668  0.57821625  0.59119874     0.12200
H1372       H  0.63691894  0.57152725  0.45212730     0.14000
C1373       C  0.71060122  0.39366976  0.62608178    -0.01500
C1374       C  0.72161967  0.40046325  0.68210976    -0.09500
C1375       C  0.74478870  0.40119909  0.35140109    -0.18300
C1376       C  0.75787583  0.39471416  0.63137844     0.04100
C1377       C  0.74662294  0.38785288  0.57445052     0.18200
C1378       C  0.72318725  0.38770211  0.57197700    -0.19800
C1379       C  0.75883255  0.38090298  0.52067295    -0.21000
C1380       C  0.78199220  0.38064265  0.52206228    -0.19600
C1381       C  0.79354409  0.38739899  0.57718662     0.19600
C1382       C  0.78168259  0.39453098  0.63272367     0.01800
C1383       C  0.79419533  0.40095741  0.35398548    -0.14300
C1384       C  0.81743527  0.40028905  0.35342583    -0.12000
C1385       C  0.82906631  0.39342588  0.63176768     0.01300
C1386       C  0.81694849  0.38698892  0.57710649    -0.24200
H1387       H  0.71224015  0.40541972  0.39101720     0.09300
H1388       H  0.75188698  0.40690063  0.39598860     0.12900
H1389       H  0.71475080  0.38241142  0.52847049     0.11600
H1390       H  0.75040440  0.37542656  0.47740317     0.12800
H1391       H  0.79094572  0.37500474  0.47976891     0.11800
H1392       H  0.78657619  0.40671314  0.39786342     0.08900
H1393       H  0.82632480  0.40541015  0.39627170     0.12200
H1394       H  0.82572948  0.38157760  0.53422895     0.14000
C1395       C  0.64397946  0.21228999  0.50796474    -0.01500
C1396       C  0.63766506  0.21835390  0.57059080    -0.09500
C1397       C  0.63718324  0.24069593  0.58972472    -0.18300
C1398       C  0.64326352  0.25784899  0.54674759     0.04100
C1399       C  0.65020873  0.25153602  0.48379302     0.18200
C1400       C  0.65021830  0.22902475  0.46483241    -0.19800
C1401       C  0.65729401  0.26770867  0.44015087    -0.21000
C1402       C  0.65731221  0.29010902  0.45715442    -0.19600
C1403       C  0.65001613  0.29694565  0.51799994     0.19600
C1404       C  0.64288765  0.28098391  0.56388624     0.01800
C1405       C  0.63557711  0.28896694  0.62453874    -0.14300
C1406       C  0.63574804  0.31177246  0.63918118    -0.12000
C1407       C  0.64278092  0.32735752  0.59361362     0.01300
C1408       C  0.64980540  0.31975656  0.53305176    -0.24200
H1409       H  0.63286673  0.20575019  0.60508088     0.09300
H1410       H  0.63215477  0.24397187  0.63858874     0.12900
H1411       H  0.65540929  0.22450954  0.41656760     0.11600
H1412       H  0.66294452  0.26298748  0.39251571     0.12800
H1413       H  0.66301439  0.30220652  0.42230401     0.11800
H1414       H  0.62939556  0.27804210  0.66139665     0.08900
H1415       H  0.62996433  0.31726406  0.68596241     0.12200
H1416       H  0.65533110  0.33167259  0.49736905     0.14000
C1417       C  0.96411528  0.14748148  0.47185674    -0.01500
C1418       C  0.97781657  0.14047486  0.42105013    -0.09500
C1419       C  0.00099773  0.13960431  0.42837281    -0.18300
C1420       C  0.01123805  0.14595722  0.48688528     0.04100
C1421       C  0.99718134  0.15331912  0.53779289     0.18200
C1422       C  0.97401998  0.15400303  0.52987791    -0.19800
C1423       C  0.00623775  0.15980185  0.59680368    -0.21000
C1424       C  0.02901848  0.15867695  0.60716359    -0.19600
C1425       C  0.04332826  0.15120712  0.55858273     0.19600
C1426       C  0.03480182  0.14507129  0.49728620     0.01800
C1427       C  0.05027621  0.13832191  0.44953549    -0.14300
C1428       C  0.07315657  0.13743568  0.46266309    -0.12000
C1429       C  0.08126903  0.14290221  0.52384881     0.01300
C1430       C  0.06619824  0.14987106  0.57130512    -0.24200
H1431       H  0.97059517  0.13528321  0.37573051     0.09300
H1432       H  0.01042403  0.13361494  0.38775052     0.12900
H1433       H  0.96364405  0.15953481  0.56956576     0.11600
H1434       H  0.99559171  0.16563287  0.63547794     0.12800
H1435       H  0.03548827  0.16368283  0.65362515     0.11800
H1436       H  0.04522613  0.13362792  0.40169630     0.08900
H1437       H  0.08449485  0.13215384  0.42502489     0.12200
H1438       H  0.07230104  0.15449301  0.61856241     0.14000
C1439       C  0.57761136  0.14589937  0.44869737    -0.01500
C1440       C  0.56800173  0.13920210  0.39055413    -0.09500
C1441       C  0.54500255  0.13744958  0.38420684    -0.18300
C1442       C  0.53060604  0.14295025  0.43570001     0.04100
C1443       C  0.54037126  0.15009512  0.49452332     0.18200
C1444       C  0.56373291  0.15111156  0.50092054    -0.19800
C1445       C  0.52673408  0.15645805  0.54611054    -0.21000
C1446       C  0.50360562  0.15591595  0.54053971    -0.19600
C1447       C  0.49349011  0.14881882  0.48341232     0.19600
C1448       C  0.50689603  0.14202079  0.43039728     0.01800
C1449       C  0.49598412  0.13478474  0.37399442    -0.14300
C1450       C  0.47287046  0.13514774  0.36940657    -0.12000
C1451       C  0.45962805  0.14235062  0.42095572     0.01300
C1452       C  0.47004556  0.14879646  0.47845619    -0.24200
H1453       H  0.57839775  0.13493659  0.34969761     0.09300
H1454       H  0.53909805  0.13192077  0.33803013     0.12900
H1455       H  0.57109313  0.15645325  0.54597578     0.11600
H1456       H  0.53400376  0.16221234  0.59079971     0.12800
H1457       H  0.49355317  0.16122597  0.58109154     0.11800
H1458       H  0.50476877  0.12880853  0.33221983     0.08900
H1459       H  0.46532190  0.12972531  0.32474253     0.12200
H1460       H  0.45996100  0.15430632  0.51876422     0.14000
C1461       C  0.21153840  0.14223223  0.61687201    -0.01500
C1462       C  0.21793385  0.14859815  0.67908403    -0.09500
C1463       C  0.24039509  0.14952067  0.69638673    -0.18300
C1464       C  0.25731901  0.14382033  0.65192049     0.04100
C1465       C  0.25067991  0.13683157  0.58936499     0.18200
C1466       C  0.22804842  0.13637741  0.57227806    -0.19800
C1467       C  0.26665072  0.13017829  0.54422509    -0.21000
C1468       C  0.28916368  0.13054129  0.55948053    -0.19600
C1469       C  0.29629473  0.13782286  0.61999170     0.19600
C1470       C  0.28054018  0.14460771  0.66722096     0.01800
C1471       C  0.28877209  0.15187828  0.39398349    -0.14300
C1472       C  0.31163515  0.15201370  0.40701222    -0.12000
C1473       C  0.32702544  0.14523673  0.36028068     0.01300
C1474       C  0.31918240  0.13831445  0.63345258    -0.24200
H1475       H  0.20550394  0.15314063  0.71458817     0.09300
H1476       H  0.24392657  0.15447853  0.41162438     0.12900
H1477       H  0.22327818  0.13119020  0.52424205     0.11600
H1478       H  0.26168756  0.12455294  0.49680386     0.12800
H1479       H  0.30110631  0.12513099  0.52356886     0.11800
H1480       H  0.27800569  0.15779321  0.43181523     0.08900
H1481       H  0.31729892  0.15772607  0.45364876     0.12200
H1482       H  0.33093794  0.13299974  0.59683985     0.14000
C1483       C  0.08135416  0.39415147  0.58792885    -0.01500
C1484       C  0.07227013  0.40025633  0.64750539    -0.09500
C1485       C  0.04917972  0.40038635  0.65700853    -0.18300
C1486       C  0.03442226  0.39397050  0.60722571     0.04100
C1487       C  0.04387549  0.38729072  0.54745836     0.18200
C1488       C  0.06699635  0.38765817  0.53827926    -0.19800
C1489       C  0.03023766  0.38022808  0.49694378    -0.21000
C1490       C  0.00727953  0.37992658  0.50398255    -0.19600
C1491       C  0.99736979  0.38679488  0.56157755     0.19600
C1492       C  0.01069798  0.39387171  0.61425755     0.01800
C1493       C  0.99962184  0.40061089  0.67123216    -0.14300
C1494       C  0.97634363  0.40023486  0.67554832    -0.12000
C1495       C  0.96336213  0.39335417  0.62317145     0.01300
C1496       C  0.97409708  0.38664523  0.56644587    -0.24200
H1497       H  0.08303300  0.40529790  0.68668192     0.09300
H1498       H  0.04340475  0.40559205  0.70374500     0.12900
H1499       H  0.07385574  0.38263893  0.49219229     0.11600
H1500       H  0.03738135  0.37484607  0.45161727     0.12800
H1501       H  0.99717814  0.37434657  0.46391905     0.11800
H1502       H  0.00846580  0.40626608  0.37989782     0.08900
H1503       H  0.96849365  0.40544691  0.38672288     0.12200
H1504       H  0.96430255  0.38125076  0.52550009     0.14000
C1505       C  0.14619715  0.20855602  0.56170753    -0.01500
C1506       C  0.15298913  0.21917074  0.50500692    -0.09500
C1507       C  0.15301693  0.24234863  0.50021329    -0.18300
C1508       C  0.14603557  0.25588818  0.55214069     0.04100
C1509       C  0.13904973  0.24509051  0.60956159     0.18200
C1510       C  0.13924138  0.22167840  0.61389149    -0.19800
C1511       C  0.13192177  0.25772548  0.66237180    -0.21000
C1512       C  0.13193615  0.28087851  0.65988218    -0.19600
C1513       C  0.13898971  0.29198775  0.60445358     0.19600
C1514       C  0.14584806  0.27971160  0.54934453     0.01800
C1515       C  0.15221123  0.29186468  0.49401006    -0.14300
C1516       C  0.15190955  0.31517421  0.49374665    -0.12000
C1517       C  0.14578499  0.32710129  0.54887819     0.01300
C1518       C  0.13927320  0.31537888  0.60396555    -0.24200
H1519       H  0.15847479  0.20951871  0.46382187     0.09300
H1520       H  0.15872186  0.24911519  0.45525963     0.12900
H1521       H  0.13390012  0.21368969  0.65795266     0.11600
H1522       H  0.12637152  0.24964579  0.70603794     0.12800
H1523       H  0.12637802  0.29018327  0.70166725     0.11800
H1524       H  0.15756581  0.28388608  0.45021403     0.08900
H1525       H  0.15700658  0.32389750  0.45066760     0.12200
H1526       H  0.13425470  0.32452273  0.64666818     0.14000
C1527       C  0.57683486  0.39778401  0.64149293    -0.01500
C1528       C  0.56828901  0.40491711  0.36734596    -0.09500
C1529       C  0.54548329  0.40673352  0.37745432    -0.18300
C1530       C  0.53014694  0.40104417  0.66202274     0.04100
C1531       C  0.53877747  0.39393150  0.60158611     0.18200
C1532       C  0.56200687  0.39272874  0.59143189    -0.19800
C1533       C  0.52414805  0.38758297  0.55242934    -0.21000
C1534       C  0.50117557  0.38783984  0.56232226    -0.19600
C1535       C  0.49220630  0.39469735  0.62136343     0.19600
C1536       C  0.50661474  0.40166123  0.33843430     0.01800
C1537       C  0.49685471  0.40864003  0.39695114    -0.14300
C1538       C  0.47393639  0.40786100  0.40605135    -0.12000
C1539       C  0.45974280  0.40049025  0.35711517     0.01300
C1540       C  0.46894527  0.39430861  0.63087325    -0.24200
H1541       H  0.57937397  0.40918929  0.40657352     0.09300
H1542       H  0.54050622  0.41230390  0.42454243     0.12900
H1543       H  0.56850689  0.38716956  0.54544763     0.11600
H1544       H  0.53052132  0.38199313  0.50637032     0.12800
H1545       H  0.49035203  0.38242561  0.52370317     0.11800
H1546       H  0.50640005  0.41473476  0.43703229     0.08900
H1547       H  0.46729781  0.41312849  0.45211429     0.12200
H1548       H  0.45809536  0.38868774  0.59250571     0.14000
C1549       C  0.39385337  0.21191815  0.39284571    -0.01500
C1550       C  0.38694571  0.22318175  0.44862258    -0.09500
C1551       C  0.38713268  0.24636396  0.45204314    -0.18300
C1552       C  0.39450867  0.25930075  0.39966063     0.04100
C1553       C  0.40129683  0.24790006  0.34276011     0.18200
C1554       C  0.40084164  0.22443271  0.33974114    -0.19800
C1555       C  0.40860856  0.26000131  0.28938828    -0.21000
C1556       C  0.40908654  0.28318429  0.29099017    -0.19600
C1557       C  0.40238621  0.29486357  0.34609572     0.19600
C1558       C  0.39532341  0.28310914  0.40166085     0.01800
C1559       C  0.38948677  0.29572851  0.45683659    -0.14300
C1560       C  0.39042171  0.31898382  0.45652358    -0.12000
C1561       C  0.39662516  0.33045414  0.40093923     0.01300
C1562       C  0.40265755  0.31828877  0.34591928    -0.24200
H1563       H  0.38124487  0.21402811  0.49028593     0.09300
H1564       H  0.38132538  0.25360018  0.49643106     0.12900
H1565       H  0.40617320  0.21592939  0.29629319     0.11600
H1566       H  0.41397551  0.25147830  0.24604417     0.12800
H1567       H  0.41484092  0.29205938  0.24887979     0.11800
H1568       H  0.38407551  0.28817803  0.50100721     0.08900
H1569       H  0.38564889  0.32805922  0.49951086     0.12200
H1570       H  0.40769782  0.32709855  0.30286053     0.14000
C1571       C  0.32878806  0.39486563  0.43985819    -0.01500
C1572       C  0.32234954  0.38846658  0.50190299    -0.09500
C1573       C  0.29990980  0.38764350  0.51915047    -0.18300
C1574       C  0.28301806  0.39353236  0.47484780     0.04100
C1575       C  0.28966677  0.40041590  0.41228412     0.18200
C1576       C  0.31231670  0.40067418  0.39511553    -0.19800
C1577       C  0.27369652  0.40733889  0.36748716    -0.21000
C1578       C  0.25120529  0.40746970  0.38323246    -0.19600
C1579       C  0.24407561  0.40035168  0.44382980     0.19600
C1580       C  0.25982671  0.39315922  0.49052988     0.01800
C1581       C  0.25162073  0.38586882  0.55069514    -0.14300
C1582       C  0.22881891  0.38621070  0.56427701    -0.12000
C1583       C  0.21341170  0.39348475  0.51823097     0.01300
C1584       C  0.22120777  0.40041366  0.45793899    -0.24200
H1585       H  0.33475694  0.38393395  0.53747202     0.09300
H1586       H  0.29637823  0.38262927  0.56778897     0.12900
H1587       H  0.31714916  0.40590182  0.34724091     0.11600
H1588       H  0.27865351  0.41289309  0.32006753     0.12800
H1589       H  0.23927948  0.41315769  0.34766043     0.11800
H1590       H  0.26235470  0.37958504  0.58806849     0.08900
H1591       H  0.22321091  0.38046369  0.61085559     0.12200
H1592       H  0.20943753  0.40603926  0.42178829     0.14000
C1593       C  0.14644533  0.95601625  0.52686824    -0.01500
C1594       C  0.14044066  0.96466137  0.58714509    -0.09500
C1595       C  0.14069965  0.98774749  0.59852927    -0.18300
C1596       C  0.14734531  0.00285564  0.54991831     0.04100
C1597       C  0.15402076  0.99374601  0.48967462     0.18200
C1598       C  0.15332551  0.97073989  0.47874636    -0.19800
C1599       C  0.16132554  0.00760100  0.44013263    -0.21000
C1600       C  0.16182027  0.03048987  0.44845768    -0.19600
C1601       C  0.15481308  0.04012206  0.50629778     0.19600
C1602       C  0.14756227  0.02659618  0.55821787     0.01800
C1603       C  0.14063175  0.03754514  0.61534881    -0.14300
C1604       C  0.14067068  0.06092102  0.62004933    -0.12000
C1605       C  0.14752951  0.07404313  0.56800511     0.01300
C1606       C  0.15479536  0.06336204  0.51173774    -0.24200
H1607       H  0.13513670  0.95359744  0.62521643     0.09300
H1608       H  0.13557620  0.99328984  0.64561017     0.12900
H1609       H  0.15831976  0.96424741  0.43217513     0.11600
H1610       H  0.16665579  0.00068792  0.39443141     0.12800
H1611       H  0.16749479  0.04077233  0.40897841     0.11800
H1612       H  0.13483705  0.02849169  0.65675152     0.08900
H1613       H  0.13504263  0.06871816  0.66420647     0.12200
H1614       H  0.16031502  0.07320448  0.47112045     0.14000
C1615       C  0.96005175  0.89294576  0.51618767    -0.01500
C1616       C  0.97278182  0.88556193  0.56842592    -0.09500
C1617       C  0.99584652  0.88420887  0.56441337    -0.18300
C1618       C  0.00717138  0.89066485  0.50797580     0.04100
C1619       C  0.99422972  0.89796067  0.45463255     0.18200
C1620       C  0.97083409  0.89883050  0.45892399    -0.19800
C1621       C  0.00475264  0.90459353  0.39778338    -0.21000
C1622       C  0.02788470  0.90419336  0.39280258    -0.19600
C1623       C  0.04107532  0.89718376  0.44460304     0.19600
C1624       C  0.03086137  0.89032718  0.50295394     0.01800
C1625       C  0.04481187  0.88364286  0.55416859    -0.14300
C1626       C  0.06783684  0.88392751  0.54803075    -0.12000
C1627       C  0.07795145  0.89063709  0.49061014     0.01300
C1628       C  0.06444761  0.89715678  0.43876705    -0.24200
H1629       H  0.96485066  0.88063348  0.61294563     0.09300
H1630       H  0.00423373  0.87812994  0.60666502     0.12900
H1631       H  0.96107140  0.90454807  0.41822606     0.11600
H1632       H  0.99502510  0.91030653  0.35706165     0.12800
H1633       H  0.03551306  0.90959958  0.34831891     0.11800
H1634       H  0.03857060  0.87813045  0.59990180     0.08900
H1635       H  0.07776705  0.87874730  0.58892484     0.12200
H1636       H  0.07209075  0.90240193  0.39410092     0.14000
C1637       C  0.14524332  0.57893300  0.60703804    -0.01500
C1638       C  0.15248653  0.56549365  0.65797088    -0.09500
C1639       C  0.15415178  0.54248691  0.65113369    -0.18300
C1640       C  0.14817711  0.53186542  0.59301840     0.04100
C1641       C  0.14081932  0.54547514  0.54116503     0.18200
C1642       C  0.13966888  0.56884560  0.54828201    -0.19800
C1643       C  0.13442460  0.53562113  0.48295892    -0.21000
C1644       C  0.13510763  0.51253682  0.47518979    -0.19600
C1645       C  0.14222797  0.49869474  0.52544144     0.19600
C1646       C  0.14898687  0.50822410  0.58497418     0.01800
C1647       C  0.15606006  0.49365528  0.63428990    -0.14300
C1648       C  0.15590432  0.47068061  0.62558638    -0.12000
C1649       C  0.14892914  0.46119774  0.56739557     0.01300
C1650       C  0.14236118  0.47535067  0.51701140    -0.24200
H1651       H  0.15713506  0.57282135  0.70368042     0.09300
H1652       H  0.16007376  0.53356282  0.69263085     0.12900
H1653       H  0.13403056  0.57911344  0.50855819     0.11600
H1654       H  0.12862263  0.54583392  0.44337045     0.12800
H1655       H  0.12984472  0.50545709  0.42971645     0.11800
H1656       H  0.16174332  0.49936656  0.68051851     0.08900
H1657       H  0.16127718  0.46027043  0.66524642     0.12200
H1658       H  0.13700244  0.46822850  0.47165427     0.14000
C1659       C  0.07550438  0.64537281  0.62602086    -0.01500
C1660       C  0.06188914  0.63865051  0.67710256    -0.09500
C1661       C  0.03865944  0.63827978  0.67039730    -0.18300
C1662       C  0.02826527  0.64486432  0.61225160     0.04100
C1663       C  0.04222692  0.65184336  0.56097027     0.18200
C1664       C  0.06543433  0.65202700  0.56826078    -0.19800
C1665       C  0.03302157  0.65850558  0.50226648    -0.21000
C1666       C  0.01017573  0.65798919  0.49264017    -0.19600
C1667       C  0.99592870  0.65098525  0.54168126     0.19600
C1668       C  0.00463287  0.64463298  0.60262799     0.01800
C1669       C  0.98925576  0.63837204  0.65088848    -0.14300
C1670       C  0.96630025  0.63825137  0.63872531    -0.12000
C1671       C  0.95796332  0.64398707  0.57796781     0.01300
C1672       C  0.97294856  0.65036719  0.52984695    -0.24200
H1673       H  0.06921888  0.63331744  0.38887584     0.09300
H1674       H  0.02931559  0.63247687  0.37788330     0.12900
H1675       H  0.07571184  0.65734144  0.52831333     0.11600
H1676       H  0.04359920  0.66404004  0.46328594     0.12800
H1677       H  0.00360158  0.66316069  0.44644597     0.11800
H1678       H  0.99444323  0.63349152  0.69844177     0.08900
H1679       H  0.95506183  0.63333218  0.67681669     0.12200
H1680       H  0.96669483  0.65511079  0.48285180     0.14000
C1681       C  0.14188398  0.71115117  0.34194034    -0.01500
C1682       C  0.14960827  0.72671888  0.29729372    -0.09500
C1683       C  0.15042591  0.74940046  0.31284820    -0.18300
C1684       C  0.14320119  0.75729747  0.37364405     0.04100
C1685       C  0.13534166  0.74138117  0.41862785     0.18200
C1686       C  0.13474173  0.71867069  0.40249109    -0.19800
C1687       C  0.12826895  0.74815905  0.47975849    -0.21000
C1688       C  0.12923510  0.77043968  0.49788429    -0.19600
C1689       C  0.13699138  0.78655931  0.45502218     0.19600
C1690       C  0.14368308  0.78030919  0.39179075     0.01800
C1691       C  0.15034410  0.79740876  0.34941727    -0.14300
C1692       C  0.15060631  0.81964130  0.36928692    -0.12000
C1693       C  0.14451609  0.82565508  0.43209371     0.01300
C1694       C  0.13781005  0.80897615  0.47483704    -0.24200
H1695       H  0.15552791  0.72129661  0.25058551     0.09300
H1696       H  0.15717348  0.76026090  0.27668314     0.12900
H1697       H  0.12874135  0.70676799  0.43755408     0.11600
H1698       H  0.12205849  0.73610269  0.51399804     0.12800
H1699       H  0.12374095  0.77512329  0.54569911     0.11800
H1700       H  0.15517755  0.79420995  0.30036081     0.08900
H1701       H  0.15574812  0.83221817  0.33513044     0.12200
H1702       H  0.13275671  0.81349472  0.52322174     0.14000
C1703       C  0.39312886  0.95958645  0.43476522    -0.01500
C1704       C  0.38600278  0.97275227  0.48652405    -0.09500
C1705       C  0.38447324  0.99582688  0.48101089    -0.18300
C1706       C  0.39053470  0.00674614  0.42351823     0.04100
C1707       C  0.39778628  0.99337852  0.37090031     0.18200
C1708       C  0.39871874  0.96997692  0.37660802    -0.19800
C1709       C  0.40438039  0.00349349  0.31338983    -0.21000
C1710       C  0.40405646  0.02661941  0.30708352    -0.19600
C1711       C  0.39705640  0.04024176  0.35808580     0.19600
C1712       C  0.39000991  0.03044570  0.41686778     0.01800
C1713       C  0.38296754  0.04481745  0.46683960    -0.14300
C1714       C  0.38352593  0.06784718  0.45956917    -0.12000
C1715       C  0.39087414  0.07757034  0.40220066     0.01300
C1716       C  0.39733328  0.06362771  0.35112108    -0.24200
H1717       H  0.38140561  0.96515224  0.53181114     0.09300
H1718       H  0.37868271  0.00458165  0.52304955     0.12900
H1719       H  0.40432835  0.95990853  0.33632581     0.11600
H1720       H  0.41010133  0.99344898  0.27324682     0.12800
H1721       H  0.40949740  0.03390206  0.26214933     0.11800
H1722       H  0.37699672  0.03888929  0.51246161     0.08900
H1723       H  0.37815238  0.07811335  0.49964226     0.12200
H1724       H  0.40295299  0.07094298  0.30638552     0.14000
C1725       C  0.46368337  0.89645855  0.44037222    -0.01500
C1726       C  0.47193021  0.90304889  0.38047083    -0.09500
C1727       C  0.49471848  0.90454708  0.36951419    -0.18300
C1728       C  0.51025524  0.89902635  0.41809374     0.04100
C1729       C  0.50187495  0.89216322  0.47886084     0.18200
C1730       C  0.47873269  0.89130178  0.48983123    -0.19800
C1731       C  0.51665134  0.88584114  0.52775475    -0.21000
C1732       C  0.53957753  0.88609353  0.51753183    -0.19600
C1733       C  0.54833518  0.89291814  0.45841830     0.19600
C1734       C  0.53376695  0.89967294  0.40803859     0.01800
C1735       C  0.54336078  0.90662747  0.34947200    -0.14300
C1736       C  0.56630659  0.90611219  0.34045567    -0.12000
C1737       C  0.58064614  0.89904539  0.38956311     0.01300
C1738       C  0.57157760  0.89279896  0.44897591    -0.24200
H1739       H  0.46063871  0.90726225  0.34161924     0.09300
H1740       H  0.49953355  0.90981935  0.32210630     0.12900
H1741       H  0.47244792  0.88604567  0.53623564     0.11600
H1742       H  0.51043281  0.88035705  0.57395925     0.12800
H1743       H  0.55053844  0.88078745  0.55603823     0.11800
H1744       H  0.53365821  0.91257470  0.30943995     0.08900
H1745       H  0.57290916  0.91151161  0.62810960     0.12200
H1746       H  0.58255531  0.88742928  0.48743147     0.14000
C1747       C  0.21198497  0.89000319  0.48010987    -0.01500
C1748       C  0.22376675  0.88309969  0.53486532    -0.09500
C1749       C  0.24698817  0.88306672  0.53581506    -0.18300
C1750       C  0.25933574  0.89018041  0.48187082     0.04100
C1751       C  0.24731549  0.89706920  0.42627190     0.18200
C1752       C  0.22391661  0.89686880  0.42582191    -0.19800
C1753       C  0.25870458  0.90421702  0.37146952    -0.21000
C1754       C  0.28183175  0.90447186  0.37033465    -0.19600
C1755       C  0.29414149  0.89769811  0.42407956     0.19600
C1756       C  0.28313039  0.89069713  0.48099049     0.01800
C1757       C  0.29645689  0.88465552  0.53449160    -0.14300
C1758       C  0.31968464  0.88553434  0.53142944    -0.12000
C1759       C  0.33036974  0.89190952  0.47467808     0.01300
C1760       C  0.31747684  0.89795631  0.42120371    -0.24200
H1761       H  0.21501204  0.87761156  0.57747776     0.09300
H1762       H  0.25474030  0.87731386  0.57948504     0.12900
H1763       H  0.21499925  0.90223096  0.38316027     0.11600
H1764       H  0.24965715  0.90965396  0.32915277     0.12800
H1765       H  0.29016226  0.91013548  0.32719203     0.11800
H1766       H  0.28947877  0.87919040  0.57941075     0.08900
H1767       H  0.32933336  0.88077208  0.57329726     0.12200
H1768       H  0.32564927  0.90315473  0.37725139     0.14000
C1769       C  0.39332604  0.58200514  0.67077795    -0.01500
C1770       C  0.39936560  0.57383471  0.73143968    -0.09500
C1771       C  0.39892555  0.55089654  0.41095044    -0.18300
C1772       C  0.39208228  0.53545008  0.36330938     0.04100
C1773       C  0.38537228  0.54405530  0.30259623     0.18200
C1774       C  0.38620253  0.56697285  0.62355233    -0.19800
C1775       C  0.37797756  0.52978086  0.25395906    -0.21000
C1776       C  0.37744929  0.50695133  0.26369868    -0.19600
C1777       C  0.38442811  0.49782184  0.32216280     0.19600
C1778       C  0.39173707  0.51183425  0.37313567     0.01800
C1779       C  0.39859904  0.50149306  0.43106373    -0.14300
C1780       C  0.39836854  0.47824580  0.43761654    -0.12000
C1781       C  0.39144747  0.46459648  0.38665605     0.01300
C1782       C  0.38433684  0.47462105  0.32936608    -0.24200
H1783       H  0.40484115  0.58515327  0.76881962     0.09300
H1784       H  0.40406072  0.54577438  0.45835595     0.12900
H1785       H  0.38118882  0.57312656  0.57668053     0.11600
H1786       H  0.37272614  0.53631767  0.54098073     0.12800
H1787       H  0.37172983  0.49632467  0.22491720     0.11800
H1788       H  0.40447331  0.51089660  0.47181068     0.08900
H1789       H  0.40396419  0.47094186  0.48243517     0.12200
H1790       H  0.37885207  0.46430262  0.28957576     0.14000
C1791       C  0.46260977  0.64606869  0.62590448    -0.01500
C1792       C  0.47554791  0.63897322  0.57351362    -0.09500
C1793       C  0.49889418  0.63863819  0.57750947    -0.18300
C1794       C  0.51001967  0.64559123  0.63418164     0.04100
C1795       C  0.49671654  0.65278795  0.35338085     0.18200
C1796       C  0.47347104  0.65294315  0.34880804    -0.19800
C1797       C  0.50657649  0.65986756  0.41073261    -0.21000
C1798       C  0.52951356  0.65963921  0.41764754    -0.19600
C1799       C  0.54317660  0.65243472  0.36725111     0.19600
C1800       C  0.53377269  0.64553722  0.64116009     0.01800
C1801       C  0.54863959  0.63885362  0.59173634    -0.14300
C1802       C  0.57176482  0.63897601  0.60148166    -0.12000
C1803       C  0.58074440  0.64535577  0.32740226     0.01300
C1804       C  0.56626677  0.65217209  0.37649617    -0.24200
H1805       H  0.46762802  0.63350654  0.52946249     0.09300
H1806       H  0.50778013  0.63276729  0.53571064     0.12900
H1807       H  0.46376510  0.65854483  0.38979820     0.11600
H1808       H  0.49644972  0.66554317  0.45075039     0.12800
H1809       H  0.53661959  0.66514223  0.46285724     0.11800
H1810       H  0.54289316  0.63342781  0.54519881     0.08900
H1811       H  0.58263815  0.63365170  0.56276902     0.12200
H1812       H  0.57301373  0.65745595  0.42242994     0.14000
C1813       C  0.32818148  0.64815907  0.63088152    -0.01500
C1814       C  0.31736166  0.65497485  0.68746138    -0.09500
C1815       C  0.29417869  0.65462803  0.69227645    -0.18300
C1816       C  0.28086571  0.64723245  0.64049455     0.04100
C1817       C  0.29188087  0.64047521  0.58298788     0.18200
C1818       C  0.31525798  0.64105256  0.57864468    -0.19800
C1819       C  0.27950978  0.63306160  0.53017224    -0.21000
C1820       C  0.25639602  0.63245298  0.53282694    -0.19600
C1821       C  0.24505149  0.63915743  0.58842284     0.19600
C1822       C  0.25706680  0.64635708  0.64349940     0.01800
C1823       C  0.24470138  0.65229429  0.36564153    -0.14300
C1824       C  0.22141901  0.65129672  0.36605977    -0.12000
C1825       C  0.20970351  0.64489186  0.64425897     0.01300
C1826       C  0.22167855  0.63874838  0.58906414    -0.24200
H1827       H  0.32687170  0.66058163  0.39533350     0.09300
H1828       H  0.28722450  0.66027382  0.40384010     0.12900
H1829       H  0.32339017  0.63573855  0.53461806     0.11600
H1830       H  0.28776851  0.62771908  0.48640569     0.12800
H1831       H  0.24730644  0.62664264  0.49106305     0.11800
H1832       H  0.25249411  0.65780846  0.40946611     0.08900
H1833       H  0.21251933  0.65608665  0.40928657     0.12200
H1834       H  0.21274771  0.63349945  0.54633383     0.14000
C1835       C  0.39663446  0.71187228  0.57416984    -0.01500
C1836       C  0.39053721  0.71825568  0.51174231    -0.09500
C1837       C  0.39108286  0.74060028  0.49310844    -0.18300
C1838       C  0.39800828  0.75738721  0.53644808     0.04100
C1839       C  0.40472277  0.75070310  0.59920796     0.18200
C1840       C  0.40370992  0.72822048  0.61763147    -0.19800
C1841       C  0.41253844  0.76647228  0.64323693    -0.21000
C1842       C  0.41345680  0.78887564  0.62683764    -0.19600
C1843       C  0.40635571  0.79610261  0.56623500     0.19600
C1844       C  0.39857589  0.78051725  0.51994509     0.01800
C1845       C  0.39144603  0.78885992  0.45964560    -0.14300
C1846       C  0.39209486  0.81167312  0.44601136    -0.12000
C1847       C  0.39958687  0.82692658  0.49210238     0.01300
C1848       C  0.40677705  0.81894543  0.55202610    -0.24200
H1849       H  0.38513038  0.70591591  0.47705997     0.09300
H1850       H  0.38614562  0.74414794  0.44435951     0.12900
H1851       H  0.40876292  0.72340809  0.66574530     0.11600
H1852       H  0.41798631  0.76143944  0.69076780     0.12800
H1853       H  0.41959447  0.80067725  0.66206826     0.11800
H1854       H  0.38491452  0.77825007  0.42240177     0.08900
H1855       H  0.38621503  0.81743172  0.39964265     0.12200
H1856       H  0.41261770  0.83059047  0.58817093     0.14000
O1857       O  0.39519060  0.62073828  0.03317892    -0.74600
O1858       O  0.39634834  0.68273103  0.98611523    -0.74600
O1859       O  0.36397489  0.65265481  0.01165346    -0.74700
O1860       O  0.42738352  0.65099579  0.00893134    -0.74800
O1861       O  0.42726561  0.64169367  0.90520894    -0.74700
O1862       O  0.36297694  0.64315126  0.90809582    -0.74700
O1863       O  0.39545526  0.67313957  0.88255735    -0.74600
O1864       O  0.39454049  0.61173042  0.92918393    -0.74700
Ni1865     Ni  0.39574904  0.65212219  0.01359339     1.25400
Ni1866     Ni  0.39505278  0.64209753  0.90254627     1.25400
C1867       C  0.39448111  0.60600259  0.98843157     0.87600
C1868       C  0.39611329  0.68811047  0.92640955     0.87500
C1869       C  0.35290399  0.64803979  0.96079872     0.87500
C1870       C  0.43790690  0.64618815  0.95720215     0.87700
O1871       O  0.39446303  0.92211776  0.72751737    -0.74600
O1872       O  0.39683091  0.85867244  0.75535353    -0.74600
O1873       O  0.36404688  0.88986822  0.74838300    -0.74700
O1874       O  0.42725492  0.89119989  0.73315139    -0.74800
O1875       O  0.43064170  0.89711716  0.83858114    -0.74700
O1876       O  0.36682916  0.89463372  0.85444318    -0.74700
O1877       O  0.40055171  0.86459486  0.86062691    -0.74600
O1878       O  0.39680696  0.92733428  0.83346428    -0.74700
Ni1879     Ni  0.39557142  0.89020780  0.73736265     1.25400
Ni1880     Ni  0.39883110  0.89611971  0.85052818     1.25400
C1881       C  0.39496313  0.93515948  0.77644689     0.87600
C1882       C  0.39906303  0.85121770  0.81286669     0.87500
C1883       C  0.35495438  0.89211112  0.80364715     0.87500
C1884       C  0.43938952  0.89472483  0.78270828     0.87700
O1885       O  0.14347363  0.61677793  0.90247490    -0.74600
O1886       O  0.14358491  0.68005191  0.93566774    -0.74600
O1887       O  0.17523160  0.64785385  0.92222358    -0.74700
O1888       O  0.11175015  0.64893697  0.91447470    -0.74800
O1889       O  0.10970123  0.64145739  0.68564742    -0.74700
O1890       O  0.17382802  0.64260586  0.69485054    -0.74700
O1891       O  0.14072552  0.67319613  0.70722112    -0.74600
O1892       O  0.14288343  0.61078894  0.00818971    -0.74700
Ni1893     Ni  0.14354014  0.64865905  0.91495379     1.25400
Ni1894     Ni  0.14170218  0.64176113  0.69430642     1.25400
C1895       C  0.14364015  0.60336863  0.95048658     0.87600
C1896       C  0.14204708  0.68701988  0.99395507     0.87500
C1897       C  0.18507983  0.64514682  0.97624468     0.87500
C1898       C  0.10017489  0.64527395  0.96501542     0.87700
O1899       O  0.14571147  0.91727312  0.89062405    -0.74600
O1900       O  0.14501942  0.85492210  0.84457988    -0.74600
O1901       O  0.17715299  0.88568246  0.86602052    -0.74700
O1902       O  0.11380064  0.88632032  0.87046332    -0.74800
O1903       O  0.11245925  0.89530991  0.76663397    -0.74700
O1904       O  0.17651668  0.89483190  0.76224354    -0.74700
O1905       O  0.14434536  0.86433208  0.74096876    -0.74600
O1906       O  0.14484843  0.92587364  0.78645541    -0.74700
Ni1907     Ni  0.14545141  0.88572201  0.87162454     1.25400
Ni1908     Ni  0.14448708  0.89540999  0.76041604     1.25400
C1909       C  0.14555832  0.93186069  0.84552237     0.87600
C1910       C  0.14463962  0.84942475  0.78486300     0.87500
C1911       C  0.18737952  0.89016555  0.81369585     0.87500
C1912       C  0.10259758  0.89082732  0.81975226     0.87700
O1913       O  0.42147691  0.39777271  0.65695271    -0.74600
O1914       O  0.35888309  0.39556117  0.69712023    -0.74600
O1915       O  0.38859776  0.42839519  0.67375066    -0.74700
O1916       O  0.39181812  0.36486319  0.67926599    -0.74800
O1917       O  0.39928032  0.36630680  0.78424348    -0.74700
O1918       O  0.39652974  0.43037875  0.77825180    -0.74700
O1919       O  0.36700666  0.39720756  0.80160944    -0.74600
O1920       O  0.42892374  0.39944377  0.76183428    -0.74700
Ni1921     Ni  0.38988848  0.39659220  0.67306172     1.25400
Ni1922     Ni  0.39822724  0.39838411  0.78516674     1.25400
C1923       C  0.43551955  0.39912980  0.70328922     0.87600
C1924       C  0.35268393  0.39593347  0.75620748     0.87500
C1925       C  0.39215706  0.43994427  0.72454739     0.87500
C1926       C  0.39598395  0.35506916  0.73256889     0.87700
O1927       O  0.11926395  0.39418315  0.95764207    -0.74600
O1928       O  0.18225310  0.39224817  0.92388138    -0.74600
O1929       O  0.15182389  0.42488680  0.94520417    -0.74700
O1930       O  0.14961742  0.36150832  0.93755424    -0.74800
O1931       O  0.14421522  0.36302213  0.83156637    -0.74700
O1932       O  0.14416946  0.42722416  0.84060590    -0.74700
O1933       O  0.17540791  0.39528428  0.81892474    -0.74600
O1934       O  0.11286167  0.39490401  0.85208903    -0.74700
Ni1935     Ni  0.15099776  0.39315690  0.94476422     1.25400
Ni1936     Ni  0.14391928  0.39517661  0.83200721     1.25400
C1937       C  0.10567091  0.39450251  0.91004314     0.87600
C1938       C  0.18919689  0.39368461  0.86566662     0.87500
C1939       C  0.14824627  0.43660685  0.89484304     0.87500
C1940       C  0.14658385  0.35174360  0.88356001     0.87700
O1941       O  0.42201389  0.14453018  0.79451071    -0.74600
O1942       O  0.35857835  0.14610144  0.76485633    -0.74600
O1943       O  0.38938864  0.11363391  0.78267489    -0.74700
O1944       O  0.39088713  0.17696423  0.77826775    -0.74800
O1945       O  0.39672275  0.17625695  0.00588817    -0.74700
O1946       O  0.39530551  0.11191459  0.67703629    -0.74700
O1947       O  0.36474410  0.14466843  0.99257548    -0.74600
O1948       O  0.42736255  0.14322335  0.68855448    -0.74700
Ni1949     Ni  0.39003093  0.14535408  0.78380474     1.25400
Ni1950     Ni  0.39625190  0.14400463  0.00391120     1.25400
C1951       C  0.43513774  0.14344629  0.74584088     0.87600
C1952       C  0.35127592  0.14545190  0.70683821     0.87500
C1953       C  0.39192668  0.10221954  0.73113556     0.87500
C1954       C  0.39389636  0.18719664  0.72514075     0.87700
O1955       O  0.11988369  0.14101939  0.82749250    -0.74600
O1956       O  0.18201468  0.14111731  0.87259738    -0.74600
O1957       O  0.15116922  0.10936757  0.85125178    -0.74700
O1958       O  0.15092218  0.17277277  0.84770845    -0.74800
O1959       O  0.14185713  0.17386091  0.95153644    -0.74700
O1960       O  0.14229924  0.10947491  0.95521390    -0.74700
O1961       O  0.17290499  0.14200165  0.97644893    -0.74600
O1962       O  0.11125181  0.14170187  0.93168916    -0.74700
Ni1963     Ni  0.15131077  0.14101735  0.84615176     1.25400
Ni1964     Ni  0.14175266  0.14174635  0.95747818     1.25400
C1965       C  0.10530906  0.14168135  0.87255867     0.87600
C1966       C  0.18767605  0.14173638  0.93208212     0.87500
C1967       C  0.14693533  0.09882489  0.90321349     0.87500
C1968       C  0.14631197  0.18388725  0.89858751     0.87700
O1969       O  0.64520697  0.42223477  0.69676491    -0.74600
O1970       O  0.64321301  0.35878583  0.99924310    -0.74600
O1971       O  0.67587673  0.38976766  0.01227100    -0.74700
O1972       O  0.61260144  0.39164981  0.01882086    -0.74800
O1973       O  0.61082697  0.39754742  0.91313377    -0.74700
O1974       O  0.67507120  0.39549331  0.90638266    -0.74700
O1975       O  0.64210466  0.36519589  0.89375869    -0.74600
O1976       O  0.64415430  0.42780218  0.92412744    -0.74700
Ni1977     Ni  0.64423628  0.39031049  0.01878940     1.25400
Ni1978     Ni  0.64294446  0.39668485  0.90557827     1.25400
C1979       C  0.64532841  0.43544742  0.98153505     0.87600
C1980       C  0.64258510  0.35159390  0.94102357     0.87500
C1981       C  0.68599173  0.39276617  0.95890087     0.87500
C1982       C  0.60122840  0.39538470  0.96792277     0.87700
O1983       O  0.64498852  0.12099423  0.71437563    -0.74600
O1984       O  0.64494146  0.18307331  0.76201857    -0.74600
O1985       O  0.67668189  0.15156743  0.73890535    -0.74700
O1986       O  0.61317171  0.15212117  0.73587266    -0.74800
O1987       O  0.61208879  0.14307575  0.83978522    -0.74700
O1988       O  0.67625532  0.14265923  0.84296392    -0.74700
O1989       O  0.64396574  0.17355324  0.86550833    -0.74600
O1990       O  0.64415409  0.11206720  0.81832803    -0.74700
Ni1991     Ni  0.64496866  0.15235462  0.73417905     1.25400
Ni1992     Ni  0.64412935  0.14252031  0.84533852     1.25400
C1993       C  0.64438772  0.10628437  0.75900271     0.87600
C1994       C  0.64434164  0.18851360  0.82178488     0.87500
C1995       C  0.68697869  0.14674795  0.79094181     0.87500
C1996       C  0.60212540  0.14730109  0.78657889     0.87700
O1997       O  0.89547625  0.41999105  0.88877879    -0.74600
O1998       O  0.89632571  0.35771284  0.93285977    -0.74600
O1999       O  0.86402036  0.38869853  0.91206100    -0.74700
O2000       O  0.92761896  0.38889338  0.90868300    -0.74800
O2001       O  0.92861038  0.39769749  0.67935939    -0.74700
O2002       O  0.86459508  0.39758990  0.68276449    -0.74700
O2003       O  0.89683808  0.36678680  0.70347270    -0.74600
O2004       O  0.89605567  0.42843294  0.99318594    -0.74700
Ni2005     Ni  0.89584297  0.38849657  0.90687886     1.25400
Ni2006     Ni  0.89658425  0.39793424  0.68500931     1.25400
C2007       C  0.89546298  0.43448336  0.93422729     0.87600
C2008       C  0.89661884  0.35202874  0.99232305     0.87500
C2009       C  0.85373487  0.39316189  0.96450145     0.87500
C2010       C  0.93866291  0.39333559  0.95976911     0.87700
O2011       O  0.89640679  0.11846168  0.86041493    -0.74600
O2012       O  0.89564387  0.18168084  0.82863585    -0.74600
O2013       O  0.86437140  0.14965668  0.84025472    -0.74700
O2014       O  0.92775480  0.15061077  0.84983891    -0.74800
O2015       O  0.93019594  0.14413740  0.74453687    -0.74700
O2016       O  0.86617028  0.14327722  0.73480253    -0.74700
O2017       O  0.89798950  0.17504239  0.72336523    -0.74600
O2018       O  0.89862582  0.11250807  0.75479600    -0.74700
Ni2019     Ni  0.89597228  0.15033786  0.84853315     1.25400
Ni2020     Ni  0.89828661  0.14353070  0.73562944     1.25400
C2021       C  0.89780632  0.10506990  0.81236884     0.87600
C2022       C  0.89679787  0.18873497  0.77051085     0.87500
C2023       C  0.85472405  0.14629232  0.78626745     0.87500
C2024       C  0.93950771  0.14745308  0.79923125     0.87700
O2025       O  0.61902890  0.64515528  0.62684986    -0.74600
O2026       O  0.68181020  0.64617905  0.66627269    -0.74600
O2027       O  0.65138728  0.61401274  0.64332952    -0.74700
O2028       O  0.64944205  0.67750189  0.64833686    -0.74800
O2029       O  0.64239367  0.67659107  0.75356171    -0.74700
O2030       O  0.64322757  0.61234114  0.74767327    -0.74700
O2031       O  0.67369658  0.64466705  0.77074014    -0.74600
O2032       O  0.61168923  0.64453228  0.73186588    -0.74700
Ni2033     Ni  0.65070598  0.64574835  0.64249100     1.25400
Ni2034     Ni  0.64245728  0.64446395  0.75465796     1.25400
C2035       C  0.60500989  0.64493391  0.67341523     0.87600
C2036       C  0.68803019  0.64561666  0.72535831     0.87500
C2037       C  0.64764655  0.60260724  0.69408861     0.87500
C2038       C  0.64567905  0.68757694  0.70154054     0.87700
O2039       O  0.91952862  0.64324221  0.94327151    -0.74600
O2040       O  0.85704812  0.64413195  0.90238089    -0.74600
O2041       O  0.88797820  0.61195248  0.92364236    -0.74700
O2042       O  0.88843772  0.67533249  0.92308981    -0.74800
O2043       O  0.89605596  0.67530702  0.81824864    -0.74700
O2044       O  0.89660744  0.61103223  0.81950870    -0.74700
O2045       O  0.86525884  0.64300255  0.79791448    -0.74600
O2046       O  0.92737516  0.64342471  0.83855528    -0.74700
Ni2047     Ni  0.88795958  0.64364636  0.92673331     1.25400
Ni2048     Ni  0.89661346  0.64316542  0.81477768     1.25400
C2049       C  0.93377625  0.64346520  0.89731780     0.87600
C2050       C  0.85087086  0.64375794  0.84330414     0.87500
C2051       C  0.89228529  0.60092661  0.87236235     0.87500
C2052       C  0.89221705  0.68588252  0.87088821     0.87700
O2053       O  0.61890472  0.89744502  0.75743045    -0.74600
O2054       O  0.68163055  0.89857104  0.71870368    -0.74600
O2055       O  0.64941251  0.92965255  0.73915912    -0.74700
O2056       O  0.65107292  0.86626719  0.73867888    -0.74800
O2057       O  0.64252850  0.86577291  0.96766463    -0.74700
O2058       O  0.64280621  0.93011892  0.96679678    -0.74700
O2059       O  0.67362456  0.89751990  0.94727053    -0.74600
O2060       O  0.61164084  0.89842485  0.65236032    -0.74700
Ni2061     Ni  0.65056916  0.89797745  0.74218046     1.25400
Ni2062     Ni  0.64239193  0.89793504  0.96305595     1.25400
C2063       C  0.60493469  0.89817192  0.71074777     0.87600
C2064       C  0.68790061  0.89802200  0.65968588     0.87500
C2065       C  0.64565684  0.94040352  0.68718375     0.87500
C2066       C  0.64687783  0.85544497  0.68707417     0.87700
O2067       O  0.92298538  0.89457457  0.80667323    -0.74600
O2068       O  0.85944388  0.89583029  0.83171730    -0.74600
O2069       O  0.89161889  0.92692806  0.81430943    -0.74700
O2070       O  0.89112184  0.86347870  0.82262929    -0.74800
O2071       O  0.89525213  0.86502513  0.92910029    -0.74700
O2072       O  0.89685597  0.92908683  0.92029011    -0.74700
O2073       O  0.86474483  0.89830481  0.93757037    -0.74600
O2074       O  0.92747909  0.89572352  0.91305390    -0.74700
Ni2075     Ni  0.89105693  0.89516461  0.81505005     1.25400
Ni2076     Ni  0.89625365  0.89710836  0.92875810     1.25400
C2077       C  0.93566362  0.89459802  0.85632645     0.87600
C2078       C  0.85167789  0.89738120  0.88910168     0.87500
C2079       C  0.89464846  0.93850133  0.86530815     0.87500
C2080       C  0.89323564  0.85372881  0.87695595     0.87700
C2081       C  0.71185787  0.89789929  0.97616859    -0.01500
C2082       C  0.71861814  0.89177072  0.91403115    -0.09500
C2083       C  0.74107519  0.89161926  0.89696629    -0.18300
C2084       C  0.75766372  0.89785304  0.94161616     0.04100
C2085       C  0.75066247  0.90461673  0.67097664     0.18200
C2086       C  0.72800313  0.90427320  0.68789714    -0.19800
C2087       C  0.76631079  0.91181244  0.71618299    -0.21000
C2088       C  0.78882802  0.91221786  0.70098408    -0.19600
C2089       C  0.79630257  0.90507998  0.97374919     0.19600
C2090       C  0.78088124  0.89782396  0.92641359     0.01800
C2091       C  0.78944468  0.89067801  0.86629281    -0.14300
C2092       C  0.81231518  0.89094467  0.85369617    -0.12000
C2093       C  0.82738185  0.89802201  0.90071950     0.01300
C2094       C  0.81919755  0.90510575  0.96058578    -0.24200
H2095       H  0.70646592  0.88688931  0.87821812     0.09300
H2096       H  0.74485249  0.88673022  0.84829220     0.12900
H2097       H  0.72292023  0.90930404  0.73583753     0.11600
H2098       H  0.76109035  0.91724024  0.76360611     0.12800
H2099       H  0.80052640  0.91796140  0.73700110     0.11800
H2100       H  0.77896453  0.88446350  0.82833680     0.08900
H2101       H  0.81824969  0.88515305  0.80736601     0.12200
H2102       H  0.83071620  0.91064236  0.99741885     0.14000
C2103       C  0.89340398  0.82910978  0.87874698    -0.01500
C2104       C  0.88726374  0.81770250  0.93450906    -0.09500
C2105       C  0.88656797  0.79443291  0.93523610    -0.23100
C2106       C  0.89258314  0.78175635  0.88033379     0.04100
C2107       C  0.89936193  0.79346898  0.82440921     0.18200
C2108       C  0.89946139  0.81686715  0.82388239    -0.19800
C2109       C  0.90602635  0.78178569  0.76930266    -0.21000
C2110       C  0.90577855  0.75861904  0.76803343    -0.19600
C2111       C  0.89883090  0.74655119  0.82182893     0.19600
C2112       C  0.89219076  0.75793758  0.87886990     0.01800
C2113       C  0.88543269  0.74496688  0.93190822    -0.14300
C2114       C  0.88555312  0.72176576  0.92875918    -0.12000
C2115       C  0.89209895  0.71057170  0.87252948     0.01300
C2116       C  0.89861109  0.72311769  0.81902732    -0.24200
H2117       H  0.88249104  0.82681690  0.97742026     0.09300
H2118       H  0.88117316  0.78691194  0.97946595     0.12900
H2119       H  0.90447271  0.82558871  0.78064531     0.11600
H2120       H  0.91158614  0.79064624  0.72695103     0.12800
H2121       H  0.91113462  0.75007523  0.72472054     0.11800
H2122       H  0.87987797  0.75219613  0.97656377     0.08900
H2123       H  0.88033935  0.71255707  0.97085317     0.12200
H2124       H  0.90371443  0.71466097  0.77527339     0.14000
C2125       C  0.64528600  0.71220847  0.70221065    -0.01500
C2126       C  0.65139815  0.72403561  0.75741448    -0.09500
C2127       C  0.65225849  0.74731095  0.75680405    -0.18300
C2128       C  0.64638592  0.75957718  0.70111700     0.04100
C2129       C  0.63956094  0.74744377  0.64583782     0.18200
C2130       C  0.63938486  0.72403242  0.64658293    -0.19800
C2131       C  0.63291077  0.75872449  0.59013117    -0.21000
C2132       C  0.63314176  0.78188877  0.58769303    -0.19600
C2133       C  0.64015308  0.79436808  0.64081435     0.19600
C2134       C  0.64690747  0.78338854  0.69831146     0.01800
C2135       C  0.65391074  0.79673779  0.75045245    -0.14300
C2136       C  0.65387363  0.81991299  0.74608727    -0.12000
C2137       C  0.64708279  0.83073524  0.68958163     0.01300
C2138       C  0.64034537  0.81780093  0.63688923    -0.24200
H2139       H  0.65609767  0.71523218  0.80084234     0.09300
H2140       H  0.65762082  0.75516968  0.80067335     0.12900
H2141       H  0.63443212  0.71496218  0.60377537     0.11600
H2142       H  0.62732129  0.74956095  0.88153950     0.12800
H2143       H  0.62776088  0.79011357  0.87723781     0.11800
H2144       H  0.65960662  0.78982785  0.79531984     0.08900
H2145       H  0.65928320  0.82940130  0.78756738     0.12200
H2146       H  0.63507122  0.82595045  0.59290237     0.14000
C2147       C  0.82685091  0.64442646  0.82709586    -0.01500
C2148       C  0.81131875  0.65228401  0.87199572    -0.09500
C2149       C  0.78867248  0.65330486  0.85694551    -0.18300
C2150       C  0.78068560  0.64609152  0.79639502     0.04100
C2151       C  0.79654775  0.63838210  0.75063432     0.18200
C2152       C  0.81934242  0.63769139  0.76619064    -0.19800
C2153       C  0.78956846  0.63137771  0.68964857    -0.21000
C2154       C  0.76715449  0.63211073  0.67270077    -0.19600
C2155       C  0.75108981  0.63952466  0.71665693     0.19600
C2156       C  0.75758860  0.64630727  0.77953169     0.01800
C2157       C  0.74063801  0.65266546  0.82309796    -0.14300
C2158       C  0.71829221  0.65243006  0.80489249    -0.12000
C2159       C  0.71195894  0.64614028  0.74258699     0.01300
C2160       C  0.72849113  0.63984489  0.69847035    -0.24200
H2161       H  0.81673691  0.65802926  0.91884769     0.09300
H2162       H  0.77789908  0.66006192  0.89357120     0.12900
H2163       H  0.83125251  0.63171004  0.73086662     0.11600
H2164       H  0.80154865  0.62528910  0.65474786     0.12800
H2165       H  0.76232090  0.62661563  0.62504318     0.11800
H2166       H  0.74402083  0.65758291  0.87196306     0.08900
H2167       H  0.70586078  0.65731388  0.84003234     0.12200
H2168       H  0.72373509  0.63467664  0.65041016     0.14000
C2169       C  0.89605977  0.96297873  0.85912437    -0.01500
C2170       C  0.90278891  0.97206529  0.80040577    -0.09500
C2171       C  0.90422092  0.99500319  0.79217822    -0.18300
C2172       C  0.89849179  0.00986659  0.84239383     0.04100
C2173       C  0.89143278  0.00064918  0.90193216     0.18200
C2174       C  0.89060658  0.97734442  0.91013387    -0.19800
C2175       C  0.88496771  0.01476578  0.95240431    -0.21000
C2176       C  0.88530303  0.03784471  0.94495881    -0.19600
C2177       C  0.89229439  0.04740945  0.88705098     0.19600
C2178       C  0.89917007  0.03351400  0.83513699     0.01800
C2179       C  0.90627754  0.04388529  0.77785905    -0.14300
C2180       C  0.90584487  0.06694754  0.77152806    -0.12000
C2181       C  0.89867588  0.08065070  0.82211581     0.01300
C2182       C  0.89222046  0.07079007  0.88029672    -0.24200
H2183       H  0.90722488  0.96132271  0.76039637     0.09300
H2184       H  0.90968435  0.00046397  0.74555881     0.12900
H2185       H  0.88523488  0.97040837  0.95563624     0.11600
H2186       H  0.87934143  0.00791280  0.99769947     0.12800
H2187       H  0.87994613  0.04828844  0.98467947     0.11800
H2188       H  0.91225323  0.03472310  0.73674500     0.08900
H2189       H  0.91124799  0.07408283  0.72636214     0.12200
H2190       H  0.88673040  0.08125902  0.91985713     0.14000
C2191       C  0.89449762  0.45859617  0.91976791    -0.01500
C2192       C  0.90040108  0.46700262  0.85935059    -0.09500
C2193       C  0.90009050  0.49001771  0.84774154    -0.18300
C2194       C  0.89350326  0.50529519  0.89629429     0.04100
C2195       C  0.88698087  0.49644547  0.95679619     0.18200
C2196       C  0.88771678  0.47347223  0.96795080    -0.19800
C2197       C  0.87974800  0.51052599  0.00624785    -0.21000
C2198       C  0.87908380  0.53338554  0.99743028    -0.19600
C2199       C  0.88582140  0.54273553  0.93915838     0.19600
C2200       C  0.89311583  0.52896243  0.88750212     0.01800
C2201       C  0.89984031  0.53958323  0.82994697    -0.14300
C2202       C  0.89933288  0.56287951  0.82429722    -0.12000
C2203       C  0.89225357  0.57624931  0.87583052     0.01300
C2204       C  0.88542045  0.56592958  0.93282331    -0.24200
H2205       H  0.90564133  0.45579488  0.82127991     0.09300
H2206       H  0.90510269  0.49534347  0.80048485     0.12900
H2207       H  0.88282105  0.46713234  0.01464715     0.11600
H2208       H  0.87448618  0.50379889  0.71865122     0.12800
H2209       H  0.87339573  0.54385835  0.03672973     0.11800
H2210       H  0.90577669  0.53035341  0.78882938     0.08900
H2211       H  0.90473943  0.57042785  0.77972512     0.12200
H2212       H  0.87983920  0.57601222  0.97312241     0.14000
C2213       C  0.89660089  0.32820397  0.67706846    -0.01500
C2214       C  0.89055343  0.32186271  0.73948314    -0.09500
C2215       C  0.89034815  0.29945314  0.75736543    -0.18300
C2216       C  0.89648646  0.28252765  0.71329762     0.04100
C2217       C  0.90319105  0.28911980  0.65053332     0.18200
C2218       C  0.90290508  0.31170448  0.96617676    -0.19800
C2219       C  0.91042935  0.27314600  0.93937068    -0.21000
C2220       C  0.91079751  0.25068279  0.62196655    -0.19600
C2221       C  0.90371189  0.24358628  0.68261540     0.19600
C2222       C  0.89640451  0.25935232  0.72925788     0.01800
C2223       C  0.88917281  0.25116524  0.78950356    -0.14300
C2224       C  0.88955731  0.22835182  0.80307620    -0.12000
C2225       C  0.89681859  0.21294035  0.75692249     0.01300
C2226       C  0.90382705  0.22072376  0.69672527    -0.24200
H2227       H  0.88573374  0.33430095  0.77475140     0.09300
H2228       H  0.88551671  0.29596980  0.80619450     0.12900
H2229       H  0.90790925  0.31647484  0.91804799     0.11600
H2230       H  0.91590001  0.27808268  0.89185016     0.12800
H2231       H  0.91663838  0.23873343  0.91990768     0.11800
H2232       H  0.88283750  0.26191399  0.82685779     0.08900
H2233       H  0.88378880  0.22273166  0.84962179     0.12200
H2234       H  0.90948629  0.20893584  0.66056215     0.14000
C2235       C  0.64412023  0.96495510  0.69105233    -0.01500
C2236       C  0.64993683  0.97870181  0.63945821    -0.09500
C2237       C  0.64965736  0.00197643  0.64641637    -0.18300
C2238       C  0.64307271  0.01212601  0.70507922     0.04100
C2239       C  0.63647186  0.99790727  0.75618632     0.18200
C2240       C  0.63718570  0.97473910  0.74884553    -0.19800
C2241       C  0.62942247  0.00679308  0.81494304    -0.21000
C2242       C  0.62943645  0.02960989  0.82516572    -0.19600
C2243       C  0.63643740  0.04410225  0.77678600     0.19600
C2244       C  0.64302034  0.03573341  0.71557375     0.01800
C2245       C  0.64941823  0.05139512  0.66823419    -0.14300
C2246       C  0.64960150  0.07430011  0.68176389    -0.12000
C2247       C  0.64367545  0.08224598  0.74288300     0.01300
C2248       C  0.63697442  0.06699060  0.78980726    -0.24200
H2249       H  0.65528776  0.97147223  0.92743585     0.09300
H2250       H  0.65493418  0.01156627  0.60548469     0.12900
H2251       H  0.63232392  0.96419326  0.78872965     0.11600
H2252       H  0.62407096  0.99598103  0.85359994     0.12800
H2253       H  0.62409317  0.03595490  0.87153064     0.11800
H2254       H  0.65447755  0.04645109  0.62056272     0.08900
H2255       H  0.65474175  0.08578719  0.64455576     0.12200
H2256       H  0.63205277  0.07295191  0.83702079     0.14000
C2257       C  0.71155176  0.14567585  0.78976301    -0.01500
C2258       C  0.72254823  0.13923595  0.73325446    -0.09500
C2259       C  0.74575704  0.13838159  0.73051993    -0.18300
C2260       C  0.75884453  0.14463094  0.78402771     0.04100
C2261       C  0.74755237  0.15134334  0.84116105     0.18200
C2262       C  0.72414328  0.15142833  0.84387387    -0.19800
C2263       C  0.75967405  0.15824933  0.89497930    -0.21000
C2264       C  0.78279915  0.15852610  0.89359955    -0.19600
C2265       C  0.79440202  0.15180560  0.83846178     0.19600
C2266       C  0.78266869  0.14473302  0.78277379     0.01800
C2267       C  0.79533783  0.13822711  0.72834581    -0.14300
C2268       C  0.81862113  0.13896361  0.72914892    -0.12000
C2269       C  0.83005320  0.14588837  0.78432729     0.01300
C2270       C  0.81775321  0.15223372  0.83879961    -0.24200
H2271       H  0.71311049  0.13456896  0.69093529     0.09300
H2272       H  0.75291919  0.13291957  0.68569278     0.12900
H2273       H  0.71570228  0.15657548  0.88759783     0.11600
H2274       H  0.75119574  0.16370699  0.93826079     0.12800
H2275       H  0.79168789  0.16413534  0.93595439     0.11800
H2276       H  0.78778210  0.13241922  0.68448528     0.08900
H2277       H  0.82769484  0.13387071  0.68652053     0.12200
H2278       H  0.82636832  0.15766297  0.88186361     0.14000
C2279       C  0.64721617  0.45986553  0.99046008    -0.01500
C2280       C  0.65467680  0.47291285  0.93912136    -0.09500
C2281       C  0.65612534  0.49597333  0.94465917    -0.18300
C2282       C  0.64963888  0.50702888  0.66854298     0.04100
C2283       C  0.64236448  0.49378101  0.72108599     0.18200
C2284       C  0.64142749  0.47036672  0.71527544    -0.19800
C2285       C  0.63573943  0.50403979  0.77858796    -0.21000
C2286       C  0.63596779  0.52717960  0.78484387    -0.19600
C2287       C  0.64279124  0.54068657  0.73370337     0.19600
C2288       C  0.64982154  0.53075188  0.67489237     0.01800
C2289       C  0.65645349  0.54502009  0.95771629    -0.14300
C2290       C  0.65569957  0.56806713  0.96483346    -0.12000
C2291       C  0.64858079  0.57793065  0.68929374     0.01300
C2292       C  0.64235802  0.56409265  0.74056904    -0.24200
H2293       H  0.65953804  0.46523535  0.89401333     0.09300
H2294       H  0.66218941  0.50459919  0.90291901     0.12900
H2295       H  0.63567897  0.46039823  0.75535022     0.11600
H2296       H  0.63008846  0.49410065  0.81878839     0.12800
H2297       H  0.63050637  0.53456997  0.82977216     0.11800
H2298       H  0.66215161  0.53899352  0.91177533     0.08900
H2299       H  0.66073097  0.57822023  0.92439628     0.12200
H2300       H  0.63687912  0.57150245  0.78548952     0.14000
C2301       C  0.71057908  0.39358886  0.95943238    -0.01500
C2302       C  0.72159821  0.40032440  0.01551778    -0.09500
C2303       C  0.74478525  0.40125770  0.68467575    -0.18300
C2304       C  0.75785443  0.39460238  0.96476878     0.04100
C2305       C  0.74660318  0.38778364  0.90779551     0.18200
C2306       C  0.72316668  0.38764650  0.90530496    -0.19800
C2307       C  0.75881571  0.38087238  0.85398125    -0.21000
C2308       C  0.78197610  0.38061736  0.85537293    -0.19600
C2309       C  0.79352575  0.38734304  0.91053425     0.19600
C2310       C  0.78166093  0.39443028  0.96611167     0.01800
C2311       C  0.79419529  0.40101776  0.68726887    -0.14300
C2312       C  0.81743588  0.40033068  0.68672557    -0.12000
C2313       C  0.82904525  0.39336869  0.96513796     0.01300
C2314       C  0.81693096  0.38695253  0.91044737    -0.24200
H2315       H  0.71223479  0.40543265  0.72432077     0.09300
H2316       H  0.75188240  0.40694361  0.72928242     0.12900
H2317       H  0.71473096  0.38239525  0.86175761     0.11600
H2318       H  0.75038951  0.37542832  0.81067383     0.12800
H2319       H  0.79093192  0.37501470  0.81304500     0.11800
H2320       H  0.78657536  0.40676773  0.73115275     0.08900
H2321       H  0.82632585  0.40543390  0.72958833     0.12200
H2322       H  0.82571511  0.38157575  0.86753985     0.14000
C2323       C  0.64400565  0.21229789  0.84127576    -0.01500
C2324       C  0.63770812  0.21835734  0.90391935    -0.09500
C2325       C  0.63721760  0.24069813  0.92305602    -0.18300
C2326       C  0.64327058  0.25785541  0.88006304     0.04100
C2327       C  0.65020433  0.25154781  0.81709294     0.18200
C2328       C  0.65022409  0.22903648  0.79813048    -0.19800
C2329       C  0.65726619  0.26772622  0.77343711    -0.21000
C2330       C  0.65726937  0.29012657  0.79044116    -0.19600
C2331       C  0.64997920  0.29695711  0.85129815     0.19600
C2332       C  0.64287715  0.28098977  0.89720090     0.01800
C2333       C  0.63557513  0.28896661  0.95786965    -0.14300
C2334       C  0.63572982  0.31177238  0.97251116    -0.12000
C2335       C  0.64273573  0.32736288  0.92692439     0.01300
C2336       C  0.64975074  0.31976736  0.86634754    -0.24200
H2337       H  0.63292700  0.20575101  0.93842156     0.09300
H2338       H  0.63220177  0.24396985  0.97193306     0.12900
H2339       H  0.65540287  0.22452500  0.74985184     0.11600
H2340       H  0.66291028  0.26300953  0.72579198     0.12800
H2341       H  0.66295609  0.30222883  0.75558379     0.11800
H2342       H  0.62941442  0.27803649  0.99474377     0.08900
H2343       H  0.62995754  0.31725899  0.01930903     0.12200
H2344       H  0.65525823  0.33168720  0.83065144     0.14000
C2345       C  0.96410609  0.14746945  0.80507867    -0.01500
C2346       C  0.97780959  0.14045497  0.75428568    -0.09500
C2347       C  0.00099049  0.13957880  0.76162734    -0.18300
C2348       C  0.01122680  0.14593212  0.82014652     0.04100
C2349       C  0.99716699  0.15330147  0.87103729     0.18200
C2350       C  0.97400764  0.15399510  0.86309940    -0.19800
C2351       C  0.00621740  0.15977868  0.93006010    -0.21000
C2352       C  0.02899553  0.15864236  0.94044872    -0.19600
C2353       C  0.04330917  0.15117012  0.89188186     0.19600
C2354       C  0.03478901  0.14503896  0.83057326     0.01800
C2355       C  0.05026802  0.13828972  0.78283597    -0.14300
C2356       C  0.07314727  0.13740673  0.79598173    -0.12000
C2357       C  0.08125381  0.14287508  0.85717399     0.01300
C2358       C  0.06617749  0.14983352  0.90462568    -0.24200
H2359       H  0.97059015  0.13526009  0.70896667     0.09300
H2360       H  0.01041960  0.13358212  0.72101918     0.12900
H2361       H  0.96363015  0.15953367  0.90277591     0.11600
H2362       H  0.99556833  0.16561365  0.96872275     0.12800
H2363       H  0.03546069  0.16364578  0.98691772     0.11800
H2364       H  0.04522261  0.13359823  0.73499025     0.08900
H2365       H  0.08448993  0.13213047  0.75834821     0.12200
H2366       H  0.07227536  0.15445414  0.95188941     0.14000
C2367       C  0.57761585  0.14592585  0.78197021    -0.01500
C2368       C  0.56800845  0.13925341  0.72379963    -0.09500
C2369       C  0.54501064  0.13748607  0.71745616    -0.18300
C2370       C  0.53061390  0.14294784  0.76898162     0.04100
C2371       C  0.54037726  0.15006853  0.82783170     0.18200
C2372       C  0.56373725  0.15109921  0.83422225    -0.19800
C2373       C  0.52674003  0.15639277  0.87945620    -0.21000
C2374       C  0.50361247  0.15583991  0.87389266    -0.19600
C2375       C  0.49349901  0.14876775  0.81673762     0.19600
C2376       C  0.50690506  0.14200352  0.76368808     0.01800
C2377       C  0.49599412  0.13478564  0.70726387    -0.14300
C2378       C  0.47288003  0.13513803  0.70269013    -0.12000
C2379       C  0.45963829  0.14231405  0.75427219     0.01300
C2380       C  0.47005566  0.14873798  0.81179077    -0.24200
H2381       H  0.57840497  0.13501558  0.68292070     0.09300
H2382       H  0.53910712  0.13197534  0.67126100     0.12900
H2383       H  0.57109587  0.15641944  0.87930086     0.11600
H2384       H  0.53400876  0.16212783  0.92416677     0.12800
H2385       H  0.49355902  0.16112297  0.91447113     0.11800
H2386       H  0.50477975  0.12883223  0.66546412     0.08900
H2387       H  0.46533110  0.12973250  0.65800946     0.12200
H2388       H  0.45997136  0.15422616  0.85212369     0.14000
C2389       C  0.21152787  0.14229510  0.95011256    -0.01500
C2390       C  0.21792465  0.14866007  0.01232330    -0.09500
C2391       C  0.24038569  0.14957802  0.02962389    -0.18300
C2392       C  0.25730763  0.14387334  0.98515651     0.04100
C2393       C  0.25066745  0.13689616  0.92259146     0.18200
C2394       C  0.22803626  0.13644899  0.90550493    -0.19800
C2395       C  0.26663616  0.13023919  0.87745008    -0.21000
C2396       C  0.28914804  0.13057903  0.89272215    -0.19600
C2397       C  0.29627989  0.13784359  0.95324888     0.19600
C2398       C  0.28052761  0.14463967  0.00047150     0.01800
C2399       C  0.28878676  0.15196531  0.72740145    -0.14300
C2400       C  0.31165087  0.15209804  0.74042151    -0.12000
C2401       C  0.32703607  0.14529399  0.69370820     0.01300
C2402       C  0.31916612  0.13830745  0.96673190    -0.24200
H2403       H  0.20549567  0.15319956  0.04783315     0.09300
H2404       H  0.24393968  0.15460093  0.74503222     0.12900
H2405       H  0.22326458  0.13126596  0.85746633     0.11600
H2406       H  0.26167182  0.12462384  0.83002001     0.12800
H2407       H  0.30108902  0.12516276  0.85681333     0.11800
H2408       H  0.27802330  0.15789966  0.76521544     0.08900
H2409       H  0.31731923  0.15782676  0.78703669     0.12200
H2410       H  0.33092059  0.13298406  0.93012632     0.14000
C2411       C  0.08132892  0.39418548  0.92132324    -0.01500
C2412       C  0.07224727  0.40022891  0.98095405    -0.09500
C2413       C  0.04915646  0.40037355  0.99044097    -0.18300
C2414       C  0.03439648  0.39403079  0.94058679     0.04100
C2415       C  0.04384686  0.38741270  0.88076014     0.18200
C2416       C  0.06696774  0.38776975  0.87159743    -0.19800
C2417       C  0.03020684  0.38041362  0.83017733    -0.21000
C2418       C  0.00724962  0.38010366  0.83722201    -0.19600
C2419       C  0.99734304  0.38691057  0.89488016     0.19600
C2420       C  0.01067263  0.39393710  0.94761236     0.01800
C2421       C  0.99959851  0.40062971  0.00463488    -0.14300
C2422       C  0.97632087  0.40024280  0.00896068    -0.12000
C2423       C  0.96333895  0.39339697  0.95654693     0.01300
C2424       C  0.97407184  0.38674625  0.89976252    -0.24200
H2425       H  0.08301228  0.40521073  0.02018978     0.09300
H2426       H  0.04338334  0.40552869  0.03722452     0.12900
H2427       H  0.07382397  0.38279938  0.82546325     0.11600
H2428       H  0.03734858  0.37507758  0.78480410     0.12800
H2429       H  0.99714641  0.37456137  0.79711951     0.11800
H2430       H  0.00847042  0.40639024  0.71308221     0.08900
H2431       H  0.96849798  0.40554679  0.71994036     0.12200
H2432       H  0.96427702  0.38138576  0.85878012     0.14000
C2433       C  0.14618863  0.20858075  0.89504839    -0.01500
C2434       C  0.15297310  0.21919666  0.83834134    -0.09500
C2435       C  0.15300851  0.24237511  0.83355653    -0.18300
C2436       C  0.14604332  0.25591503  0.88550053     0.04100
C2437       C  0.13907533  0.24511687  0.94293993     0.18200
C2438       C  0.13925882  0.22170386  0.94726046    -0.19800
C2439       C  0.13196877  0.25775228  0.99577309    -0.21000
C2440       C  0.13197720  0.28090531  0.99327623    -0.19600
C2441       C  0.13900705  0.29201488  0.93782285     0.19600
C2442       C  0.14585208  0.27973917  0.88270038     0.01800
C2443       C  0.15219604  0.29189365  0.82734807    -0.14300
C2444       C  0.15188822  0.31520424  0.82708083    -0.12000
C2445       C  0.14577387  0.32713111  0.88222329     0.01300
C2446       C  0.13928028  0.31540618  0.93732567    -0.24200
H2447       H  0.15844416  0.20954485  0.79713973     0.09300
H2448       H  0.15870376  0.24914224  0.78859304     0.12900
H2449       H  0.13392860  0.21371512  0.99133273     0.11600
H2450       H  0.12643514  0.24967295  0.03945746     0.12800
H2451       H  0.12643020  0.29021018  0.03507323     0.11800
H2452       H  0.15754068  0.28391491  0.78354196     0.08900
H2453       H  0.15697216  0.32392836  0.78399024     0.12200
H2454       H  0.13427017  0.32454846  0.98003936     0.14000
C2455       C  0.57681480  0.39781403  0.97473714    -0.01500
C2456       C  0.56828216  0.40488582  0.70074408    -0.09500
C2457       C  0.54547461  0.40671523  0.71083072    -0.18300
C2458       C  0.53013053  0.40105646  0.99529850     0.04100
C2459       C  0.53875699  0.39394659  0.93485450     0.18200
C2460       C  0.56198583  0.39274919  0.92468659    -0.19800
C2461       C  0.52412405  0.38759744  0.88570640    -0.21000
C2462       C  0.50115220  0.38785112  0.89561692    -0.19600
C2463       C  0.49218842  0.39469829  0.95467588     0.19600
C2464       C  0.50660600  0.40167069  0.67175897     0.01800
C2465       C  0.49683825  0.40867534  0.73024036    -0.14300
C2466       C  0.47391677  0.40790582  0.73931107    -0.12000
C2467       C  0.45972887  0.40052017  0.69037661     0.01300
C2468       C  0.46892965  0.39429752  0.96421938    -0.24200
H2469       H  0.57936569  0.40915078  0.73998173     0.09300
H2470       H  0.54049276  0.41228549  0.75791531     0.12900
H2471       H  0.56848459  0.38718801  0.87870274     0.11600
H2472       H  0.53049397  0.38201009  0.83964139     0.12800
H2473       H  0.49032538  0.38243937  0.85700228     0.11800
H2474       H  0.50638073  0.41478333  0.77031168     0.08900
H2475       H  0.46727120  0.41318934  0.78535050     0.12200
H2476       H  0.45807528  0.38867771  0.92586114     0.14000
C2477       C  0.39390298  0.21192255  0.72611474    -0.01500
C2478       C  0.38698010  0.22319131  0.78186652    -0.09500
C2479       C  0.38714966  0.24637342  0.78525371    -0.18300
C2480       C  0.39452748  0.25930664  0.73286763     0.04100
C2481       C  0.40132898  0.24790199  0.67598695     0.18200
C2482       C  0.40088968  0.22443287  0.67299832    -0.19800
C2483       C  0.40863457  0.26000170  0.62260401    -0.21000
C2484       C  0.40910163  0.28318577  0.62418595    -0.19600
C2485       C  0.40239757  0.29486802  0.67928407     0.19600
C2486       C  0.39533180  0.28311540  0.73484897     0.01800
C2487       C  0.38948216  0.29573655  0.79000899    -0.14300
C2488       C  0.39041572  0.31899122  0.78969232    -0.12000
C2489       C  0.39662668  0.33046045  0.73411432     0.01300
C2490       C  0.40266604  0.31829398  0.67910093    -0.24200
H2491       H  0.38127579  0.21404179  0.82353367     0.09300
H2492       H  0.38132515  0.25361214  0.82961873     0.12900
H2493       H  0.40622971  0.21592554  0.62956574     0.11600
H2494       H  0.41400463  0.25147669  0.57926596     0.12800
H2495       H  0.41484999  0.29205909  0.58206488     0.11800
H2496       H  0.38405929  0.28818822  0.83416959     0.08900
H2497       H  0.38563400  0.32806714  0.83267046     0.12200
H2498       H  0.40770925  0.32710313  0.63604435     0.14000
C2499       C  0.32876174  0.39486298  0.77306684    -0.01500
C2500       C  0.32232964  0.38848154  0.83513488    -0.09500
C2501       C  0.29989257  0.38768121  0.85242955    -0.18300
C2502       C  0.28299446  0.39357335  0.80815139     0.04100
C2503       C  0.28963477  0.40043395  0.74555795     0.18200
C2504       C  0.31228300  0.40067160  0.72834336    -0.19800
C2505       C  0.27365765  0.40735305  0.70077508    -0.21000
C2506       C  0.25116880  0.40749812  0.71655811    -0.19600
C2507       C  0.24404704  0.40040137  0.77718532     0.19600
C2508       C  0.25980480  0.39321923  0.82387936     0.01800
C2509       C  0.25160623  0.38595185  0.88407791    -0.14300
C2510       C  0.22880503  0.38629457  0.89768339    -0.12000
C2511       C  0.21339006  0.39355073  0.85163495     0.01300
C2512       C  0.22118013  0.40046796  0.79132252    -0.24200
H2513       H  0.33474075  0.38394877  0.87069268     0.09300
H2514       H  0.29636817  0.38268058  0.90108410     0.12900
H2515       H  0.31710861  0.40588492  0.68045019     0.11600
H2516       H  0.27860733  0.41288984  0.65333219     0.12800
H2517       H  0.23923822  0.41317751  0.68098795     0.11800
H2518       H  0.26234559  0.37968051  0.92145491     0.08900
H2519       H  0.22320341  0.38055843  0.94427973     0.12200
H2520       H  0.20940539  0.40608170  0.75516908     0.14000
C2521       C  0.14653117  0.95602768  0.86023630    -0.01500
C2522       C  0.14057078  0.96467003  0.92055563    -0.09500
C2523       C  0.14082001  0.98775787  0.93193290    -0.18300
C2524       C  0.14740971  0.00287085  0.88326950     0.04100
C2525       C  0.15405006  0.99376377  0.82299094     0.18200
C2526       C  0.15336671  0.97075668  0.81207421    -0.19800
C2527       C  0.16130669  0.00762233  0.77339883    -0.21000
C2528       C  0.16178578  0.03051202  0.78170665    -0.19600
C2529       C  0.15480758  0.04014222  0.83957703     0.19600
C2530       C  0.14760526  0.02661337  0.89154802     0.01800
C2531       C  0.14069940  0.03756143  0.94870531    -0.14300
C2532       C  0.14072102  0.06093854  0.95338754    -0.12000
C2533       C  0.14753934  0.07406292  0.90130102     0.01300
C2534       C  0.15477410  0.06338286  0.84499973    -0.24200
H2535       H  0.13530594  0.95360305  0.95866495     0.09300
H2536       H  0.13573173  0.99329850  0.97904780     0.12900
H2537       H  0.15833007  0.96426848  0.76547064     0.11600
H2538       H  0.16661398  0.00071110  0.72767332     0.12800
H2539       H  0.16742731  0.04079669  0.74219310     0.11800
H2540       H  0.13493896  0.02850555  0.99014443     0.08900
H2541       H  0.13511563  0.06873450  0.99757023     0.12200
H2542       H  0.16025892  0.07322634  0.80434474     0.14000
C2543       C  0.96008920  0.89298336  0.84940314    -0.01500
C2544       C  0.97282023  0.88561552  0.90165986    -0.09500
C2545       C  0.99588636  0.88427304  0.89766761    -0.18300
C2546       C  0.00721485  0.89072304  0.84123129     0.04100
C2547       C  0.99427503  0.89800401  0.78786676     0.18200
C2548       C  0.97087631  0.89886314  0.79213766    -0.19800
C2549       C  0.00480326  0.90462879  0.73101499    -0.21000
C2550       C  0.02793716  0.90423703  0.72605756    -0.19600
C2551       C  0.04112539  0.89724035  0.77787957     0.19600
C2552       C  0.03090658  0.89038946  0.83622857     0.01800
C2553       C  0.04485398  0.88370846  0.88745510    -0.14300
C2554       C  0.06787996  0.88399015  0.88133158    -0.12000
C2555       C  0.07800021  0.89069285  0.82391290     0.01300
C2556       C  0.06449944  0.89721261  0.77205979    -0.24200
H2557       H  0.96488858  0.88069035  0.94618171     0.09300
H2558       H  0.00427214  0.87820518  0.93993425     0.12900
H2559       H  0.96111499  0.90456740  0.75142181     0.11600
H2560       H  0.99507846  0.91032572  0.69026867     0.12800
H2561       H  0.03556857  0.90963340  0.68156778     0.11800
H2562       H  0.03860912  0.87819493  0.93318245     0.08900
H2563       H  0.07780647  0.87880957  0.92223287     0.12200
H2564       H  0.07214612  0.90245173  0.72739287     0.14000
C2565       C  0.14520047  0.57896528  0.94064023    -0.01500
C2566       C  0.15242555  0.56552147  0.99158447    -0.09500
C2567       C  0.15408058  0.54251378  0.98474298    -0.18300
C2568       C  0.14811006  0.53189652  0.92661776     0.04100
C2569       C  0.14076959  0.54551128  0.87475586     0.18200
C2570       C  0.13962542  0.56888108  0.88188085    -0.19800
C2571       C  0.13440037  0.53566425  0.81651613    -0.21000
C2572       C  0.13509118  0.51258123  0.80872306    -0.19600
C2573       C  0.14218732  0.49873333  0.85899002     0.19600
C2574       C  0.14891849  0.50825561  0.91855858     0.01800
C2575       C  0.15596760  0.49368047  0.96788710    -0.14300
C2576       C  0.15581781  0.47070667  0.95915731    -0.12000
C2577       C  0.14887463  0.46123077  0.90092414     0.01300
C2578       C  0.14232815  0.47539040  0.85053248    -0.24200
H2579       H  0.15707466  0.57284638  0.03729745     0.09300
H2580       H  0.16000299  0.53358595  0.02623182     0.12900
H2581       H  0.13400211  0.57915242  0.84214728     0.11600
H2582       H  0.12862137  0.54588182  0.77690929     0.12800
H2583       H  0.12985618  0.50550703  0.76321494     0.11800
H2584       H  0.16162808  0.49938610  0.01414436     0.08900
H2585       H  0.16117150  0.46029185  0.99882850     0.12200
H2586       H  0.13699373  0.46827419  0.80514382     0.14000
C2587       C  0.07551306  0.64542182  0.95960668    -0.01500
C2588       C  0.06189614  0.63869974  0.01068708    -0.09500
C2589       C  0.03866499  0.63832434  0.00397071    -0.18300
C2590       C  0.02827209  0.64490338  0.94581596     0.04100
C2591       C  0.04223651  0.65187930  0.89453740     0.18200
C2592       C  0.06544289  0.65207005  0.90184129    -0.19800
C2593       C  0.03303587  0.65852830  0.83581539    -0.21000
C2594       C  0.01019200  0.65800323  0.82616791    -0.19600
C2595       C  0.99594132  0.65100508  0.87520563     0.19600
C2596       C  0.00463940  0.64466686  0.93617251     0.01800
C2597       C  0.98925583  0.63841480  0.98442696    -0.14300
C2598       C  0.96630065  0.63828607  0.97223271    -0.12000
C2599       C  0.95797126  0.64400547  0.91145057     0.01300
C2600       C  0.97296345  0.65037852  0.86334202    -0.24200
H2601       H  0.06920596  0.63338787  0.72224544     0.09300
H2602       H  0.02930323  0.63254079  0.71126656     0.12900
H2603       H  0.07572041  0.65738306  0.86189198     0.11600
H2604       H  0.04361611  0.66405637  0.79683242     0.12800
H2605       H  0.00362209  0.66316250  0.77995702     0.11800
H2606       H  0.99443907  0.63354948  0.03199825     0.08900
H2607       H  0.95505689  0.63337435  0.01031905     0.12200
H2608       H  0.96671659  0.65511096  0.81633002     0.14000
C2609       C  0.14188586  0.71114591  0.67528595    -0.01500
C2610       C  0.14958675  0.72671319  0.63060064    -0.09500
C2611       C  0.15041367  0.74939621  0.64614304    -0.18300
C2612       C  0.14322468  0.75729617  0.70697014     0.04100
C2613       C  0.13539866  0.74137989  0.75200436     0.18200
C2614       C  0.13478531  0.71866813  0.73587511    -0.19800
C2615       C  0.12837109  0.74815945  0.81317619    -0.21000
C2616       C  0.12934628  0.77044129  0.83128787    -0.19600
C2617       C  0.13706160  0.78656230  0.78836747     0.19600
C2618       C  0.14370893  0.78031091  0.72509897     0.01800
C2619       C  0.15032464  0.79741277  0.68267125    -0.14300
C2620       C  0.15058554  0.81964882  0.70252390    -0.12000
C2621       C  0.14454048  0.82566449  0.76536780     0.01300
C2622       C  0.13788021  0.80898190  0.80816255    -0.24200
H2623       H  0.15547950  0.72128970  0.58386587     0.09300
H2624       H  0.15714117  0.76025623  0.60994499     0.12900
H2625       H  0.12880762  0.70676678  0.77097452     0.11600
H2626       H  0.12218651  0.73610361  0.84745623     0.12800
H2627       H  0.12388516  0.77512588  0.87913280     0.11800
H2628       H  0.15512066  0.79421215  0.63358478     0.08900
H2629       H  0.15569141  0.83222646  0.66832459     0.12200
H2630       H  0.13286280  0.81349906  0.85657933     0.14000
C2631       C  0.39315173  0.95959513  0.76818186    -0.01500
C2632       C  0.38602128  0.97275198  0.81995676    -0.09500
C2633       C  0.38446791  0.99582645  0.81445604    -0.18300
C2634       C  0.39051036  0.00675449  0.75696134     0.04100
C2635       C  0.39775696  0.99339464  0.70431978     0.18200
C2636       C  0.39871626  0.96999410  0.71001858    -0.19800
C2637       C  0.40431796  0.00351579  0.64678840    -0.21000
C2638       C  0.40396996  0.02664050  0.64048531    -0.19600
C2639       C  0.39698631  0.04025568  0.69151981     0.19600
C2640       C  0.38997219  0.03045498  0.75032693     0.01800
C2641       C  0.38295623  0.04482410  0.80033968    -0.14300
C2642       C  0.38351119  0.06785600  0.79307647    -0.12000
C2643       C  0.39082783  0.07758054  0.73567453     0.01300
C2644       C  0.39725565  0.06364013  0.68456181    -0.24200
H2645       H  0.38143723  0.96514465  0.86524472     0.09300
H2646       H  0.37867082  0.00457476  0.85649878     0.12900
H2647       H  0.40432374  0.95993311  0.66971857     0.11600
H2648       H  0.41003191  0.99347714  0.60662539     0.12800
H2649       H  0.40938612  0.03392845  0.59553313     0.11800
H2650       H  0.37701665  0.03889161  0.84599151     0.08900
H2651       H  0.37816490  0.07812213  0.83317995     0.12200
H2652       H  0.40285187  0.07095670  0.63980329     0.14000
C2653       C  0.46372138  0.89644423  0.77378565    -0.01500
C2654       C  0.47197627  0.90310835  0.71396636    -0.09500
C2655       C  0.49476596  0.90460313  0.70304461    -0.18300
C2656       C  0.51029423  0.89900079  0.75157060     0.04100
C2657       C  0.50190437  0.89206175  0.81225336     0.18200
C2658       C  0.47876109  0.89120616  0.82319729    -0.19800
C2659       C  0.51667185  0.88566227  0.86108685    -0.21000
C2660       C  0.53959924  0.88591330  0.85088523    -0.19600
C2661       C  0.54836624  0.89281271  0.79185641     0.19600
C2662       C  0.53380630  0.89964274  0.74153959     0.01800
C2663       C  0.54340790  0.90666608  0.68305414    -0.14300
C2664       C  0.56635308  0.90615172  0.67405180    -0.12000
C2665       C  0.58068434  0.89901762  0.72309668     0.01300
C2666       C  0.57160945  0.89269619  0.78243303    -0.24200
H2667       H  0.46068970  0.90738507  0.67515960     0.09300
H2668       H  0.49958784  0.90994079  0.65570483     0.12900
H2669       H  0.47246721  0.88589241  0.86953618     0.11600
H2670       H  0.51044539  0.88012331  0.90722781     0.12800
H2671       H  0.55055351  0.88055056  0.88934335     0.11800
H2672       H  0.53371285  0.91266680  0.64307334     0.08900
H2673       H  0.57288788  0.91141133  0.96120749     0.12200
H2674       H  0.58258232  0.88727060  0.82083526     0.14000
C2675       C  0.21203529  0.88999063  0.81342296    -0.01500
C2676       C  0.22381611  0.88307652  0.86816818    -0.09500
C2677       C  0.24703721  0.88304832  0.86912418    -0.18300
C2678       C  0.25938435  0.89017709  0.81519559     0.04100
C2679       C  0.24736445  0.89708012  0.75961090     0.18200
C2680       C  0.22396644  0.89687270  0.75915266    -0.19800
C2681       C  0.25875254  0.90425147  0.70483294    -0.21000
C2682       C  0.28187909  0.90451529  0.70370644    -0.19600
C2683       C  0.29418841  0.89772331  0.75743185     0.19600
C2684       C  0.28317818  0.89069678  0.81431842     0.01800
C2685       C  0.29650474  0.88463103  0.86779659    -0.14300
C2686       C  0.31973174  0.88551167  0.86473443    -0.12000
C2687       C  0.33041466  0.89191500  0.80800717     0.01300
C2688       C  0.31752273  0.89798620  0.75455751    -0.24200
H2689       H  0.21506091  0.87757838  0.91076879     0.09300
H2690       H  0.25478890  0.87729070  0.91278941     0.12900
H2691       H  0.21504923  0.90224561  0.71650214     0.11600
H2692       H  0.24970485  0.90970042  0.66252949     0.12800
H2693       H  0.29020931  0.91019632  0.66058231     0.11800
H2694       H  0.28952782  0.87914395  0.91269513     0.08900
H2695       H  0.32938167  0.88072902  0.90658081     0.12200
H2696       H  0.32569524  0.90320538  0.71062604     0.14000
C2697       C  0.39331042  0.58198541  0.00409645    -0.01500
C2698       C  0.39933819  0.57382393  0.06478036    -0.09500
C2699       C  0.39887418  0.55090629  0.74421883    -0.18300
C2700       C  0.39205323  0.53545979  0.69655064     0.04100
C2701       C  0.38538195  0.54406517  0.63580226     0.18200
C2702       C  0.38618654  0.56694571  0.95689146    -0.19800
C2703       C  0.37801860  0.52978965  0.58712634    -0.21000
C2704       C  0.37748476  0.50695980  0.59686307    -0.19600
C2705       C  0.38442347  0.49783051  0.65536693     0.19600
C2706       C  0.39169677  0.51184356  0.70638106     0.01800
C2707       C  0.39851459  0.50150236  0.76435267    -0.14300
C2708       C  0.39828375  0.47825445  0.77090051    -0.12000
C2709       C  0.39140451  0.46460408  0.71989385     0.01300
C2710       C  0.38433022  0.47462923  0.66256681    -0.24200
H2711       H  0.40481028  0.58514801  0.10215056     0.09300
H2712       H  0.40398486  0.54578367  0.79164564     0.12900
H2713       H  0.38117886  0.57309216  0.91000659     0.11600
H2714       H  0.37270285  0.53627875  0.87436718     0.12800
H2715       H  0.37179190  0.49633272  0.55804965     0.11800
H2716       H  0.40435633  0.51090659  0.80513710     0.08900
H2717       H  0.40384768  0.47095098  0.81575249     0.12200
H2718       H  0.37887612  0.46431090  0.62274093     0.14000
C2719       C  0.46263589  0.64601441  0.95915986    -0.01500
C2720       C  0.47557274  0.63891687  0.90676725    -0.09500
C2721       C  0.49891967  0.63859262  0.91074518    -0.18300
C2722       C  0.51004681  0.64555527  0.96740487     0.04100
C2723       C  0.49668934  0.65288008  0.68673799     0.18200
C2724       C  0.47344332  0.65302572  0.68213629    -0.19800
C2725       C  0.50654185  0.65997246  0.74409027    -0.21000
C2726       C  0.52947934  0.65974485  0.75103547    -0.19600
C2727       C  0.54315081  0.65252711  0.70067110     0.19600
C2728       C  0.53380054  0.64551705  0.97436282     0.01800
C2729       C  0.54866774  0.63885472  0.92491570    -0.14300
C2730       C  0.57179382  0.63898808  0.93464859    -0.12000
C2731       C  0.58072382  0.64541918  0.66088328     0.01300
C2732       C  0.56624185  0.65225356  0.70994985    -0.24200
H2733       H  0.46765148  0.63344478  0.86272398     0.09300
H2734       H  0.50780489  0.63272300  0.86894264     0.12900
H2735       H  0.46372979  0.65863223  0.72310628     0.11600
H2736       H  0.49640887  0.66565276  0.78409031     0.12800
H2737       H  0.53657878  0.66525375  0.79624777     0.11800
H2738       H  0.54292069  0.63343910  0.87836839     0.08900
H2739       H  0.58266754  0.63367826  0.89592074     0.12200
H2740       H  0.57298600  0.65753922  0.75588528     0.14000
C2741       C  0.32820396  0.64816181  0.96406257    -0.01500
C2742       C  0.31738891  0.65500801  0.02061830    -0.09500
C2743       C  0.29420684  0.65467023  0.02544864    -0.18300
C2744       C  0.28088708  0.64725098  0.97371076     0.04100
C2745       C  0.29189551  0.64045745  0.91622827     0.18200
C2746       C  0.31527417  0.64102939  0.91186359    -0.19800
C2747       C  0.27951546  0.63301372  0.86346319    -0.21000
C2748       C  0.25640077  0.63240615  0.86615085    -0.19600
C2749       C  0.24506317  0.63914645  0.92172575     0.19600
C2750       C  0.25708770  0.64638512  0.97674261     0.01800
C2751       C  0.24468561  0.65229063  0.69902019    -0.14300
C2752       C  0.22140233  0.65130347  0.69942696    -0.12000
C2753       C  0.20972286  0.64492258  0.97758468     0.01300
C2754       C  0.22168857  0.63873768  0.92240647    -0.24200
H2755       H  0.32685777  0.66062438  0.72862667     0.09300
H2756       H  0.28721048  0.66029479  0.73717656     0.12900
H2757       H  0.32340233  0.63568916  0.86785690     0.11600
H2758       H  0.28776776  0.62764660  0.81971083     0.12800
H2759       H  0.24730506  0.62657225  0.82442480     0.11800
H2760       H  0.25247846  0.65781869  0.74283119     0.08900
H2761       H  0.21250047  0.65611644  0.74262926     0.12200
H2762       H  0.21274934  0.63345719  0.87972351     0.14000
C2763       C  0.39670913  0.71185106  0.90736978    -0.01500
C2764       C  0.39062433  0.71823840  0.84493510    -0.09500
C2765       C  0.39117289  0.74058497  0.82631005    -0.18300
C2766       C  0.39808641  0.75737182  0.86966733     0.04100
C2767       C  0.40479371  0.75068447  0.93243087     0.18200
C2768       C  0.40378107  0.72819911  0.95084257    -0.19800
C2769       C  0.41259550  0.76645435  0.97648121    -0.21000
C2770       C  0.41350810  0.78886011  0.96009745    -0.19600
C2771       C  0.40641291  0.79609019  0.89949088     0.19600
C2772       C  0.39864495  0.78050525  0.85318290     0.01800
C2773       C  0.39151160  0.78885240  0.79289117    -0.14300
C2774       C  0.39214926  0.81166856  0.77927665    -0.12000
C2775       C  0.39963216  0.82692178  0.82538209     0.01300
C2776       C  0.40682384  0.81893589  0.88530134    -0.24200
H2777       H  0.38522209  0.70590038  0.81024164     0.09300
H2778       H  0.38624430  0.74413532  0.77755517     0.12900
H2779       H  0.40882566  0.72338538  0.99896240     0.11600
H2780       H  0.41803413  0.76142066  0.02402019     0.12800
H2781       H  0.41963278  0.80066154  0.99534790     0.11800
H2782       H  0.38498171  0.77824325  0.75564366     0.08900
H2783       H  0.38626686  0.81742954  0.73291309     0.12200
H2784       H  0.41265656  0.83057967  0.92146009     0.14000
loop_ 
_geom_bond_atom_site_label_1 
_geom_bond_atom_site_label_2 
_geom_bond_distance 
_geom_bond_site_symmetry_2 
_ccdc_geom_bond_type 
O1           Ni9   1.927       .  S
O1           C11   1.283       .  A
O2           Ni9   1.924       .  S
O2           C12   1.284       .  A
O3           Ni9   1.908       .  S
O3           C13   1.280       .  A
O4           Ni9   1.902       .  S
O4           C14   1.280       .  A
O5          Ni10   1.934       .  S
O5           C14   1.285       .  A
O6          Ni10   1.930       .  S
O6           C13   1.285       .  A
O7          Ni10   1.908       .  S
O7           C12   1.279       .  A
O8          Ni10   1.905       .  S
O8           C11   1.280       .  A
Ni9         Ni10   2.386       .  S
C11         C841   1.479       .  S
C12         C907   1.479       .  S
C13         C885   1.484       .  S
C14         C863   1.485       .  S
O15         Ni23   1.926       .  S
O15          C25   1.283       .  A
O16         Ni23   1.930       .  S
O16          C26   1.285       .  A
O17         Ni23   1.907       .  S
O17          C27   1.279       .  A
O18         Ni23   1.905       .  S
O18          C28   1.280       .  A
O19         Ni24   1.927       .  S
O19          C28   1.283       .  A
O20         Ni24   1.926       .  S
O20          C27   1.283       .  A
O21         Ni24   1.905       .  S
O21          C26   1.279       .  A
O22         Ni24   1.909       .  S
O22          C25   1.281       .  A
Ni23        Ni24   2.388       .  S
C25         C775   1.479       .  S
C26         C919   1.481       .  S
C27         C831   1.476       .  S
C28         C797   1.477       .  S
O29         Ni37   1.929       .  S
O29          C39   1.283       .  A
O30         Ni37   1.931       .  S
O30          C40   1.285       .  A
O31         Ni37   1.909       .  S
O31          C41   1.280       .  A
O32         Ni37   1.908       .  S
O32          C42   1.280       .  A
O33         Ni38   1.930       .  S
O33        C1898   1.284   1_554  A
O34         Ni38   1.930       .  S
O34        C1897   1.284   1_554  A
O35         Ni38   1.904       .  S
O35        C1896   1.279   1_554  A
O36        Ni966   1.905       .  S
O36          C39   1.280       .  A
Ni37       Ni966   2.386       .  S
Ni38       O1892   1.905       .  S
Ni38      Ni1893   2.386   1_554  S
C39         C709   1.480       .  S
C40         O963   1.279       .  A
C40        C1681   1.481       .  S
C41         O962   1.284       .  A
C41         C897   1.480       .  S
C42         O961   1.284       .  A
C42         C731   1.485       .  S
O43         Ni51   1.932       .  S
O43          C53   1.284       .  A
O44         Ni51   1.930       .  S
O44          C54   1.285       .  A
O45         Ni51   1.907       .  S
O45          C55   1.280       .  A
O46         Ni51   1.900       .  S
O46          C56   1.279       .  A
O47         Ni52   1.927       .  S
O47          C56   1.283       .  A
O48         Ni52   1.923       .  S
O48          C55   1.283       .  A
O49         Ni52   1.906       .  S
O49          C54   1.279       .  A
O50         Ni52   1.905       .  S
O50          C53   1.280       .  A
Ni51        Ni52   2.387       .  S
C53         C665   1.482       .  S
C54         C765   1.481       .  S
C55         C819   1.480       .  S
C56         C699   1.479       .  S
O57         Ni65   1.927   1_556  S
O57          C67   1.283   1_556  A
O58         Ni65   1.929       .  S
O58          C68   1.284       .  A
O59         Ni65   1.909       .  S
O59          C69   1.281       .  A
O60         Ni65   1.910       .  S
O60          C70   1.280       .  A
O61         Ni66   1.925       .  S
O61          C70   1.283       .  A
O62         Ni66   1.927       .  S
O62          C69   1.283       .  A
O63         Ni66   1.907       .  S
O63          C68   1.279       .  A
O64         Ni66   1.907       .  S
O64          C67   1.281       .  A
Ni65        Ni66   2.387       .  S
C67         C611   1.481       .  S
C68         C643   1.480       .  S
C69         C853   1.483       .  S
C70         C633   1.477       .  S
O71         Ni79   1.924       .  S
O71          C81   1.283       .  A
O72         Ni79   1.926       .  S
O72          C82   1.284       .  A
O73         Ni79   1.904       .  S
O73          C83   1.280       .  A
O74         Ni79   1.906       .  S
O74          C84   1.279       .  A
O75         Ni80   1.928       .  S
O75          C84   1.284       .  A
O76         Ni80   1.930       .  S
O76          C83   1.284       .  A
O77         Ni80   1.910       .  S
O77          C82   1.280       .  A
O78         Ni80   1.911       .  S
O78          C81   1.281       .  A
Ni79        Ni80   2.386       .  S
C81         C555   1.480       .  S
C82         C655   1.481       .  S
C83         C721   1.483       .  S
C84         C589   1.477       .  S
O85         Ni93   1.933       .  S
O85          C95   1.284       .  A
O86         Ni93   1.929       .  S
O86          C96   1.284       .  A
O87         Ni93   1.903       .  S
O87          C97   1.279       .  A
O88         Ni93   1.901       .  S
O88          C98   1.278       .  A
O89         Ni94   1.935       .  S
O89        C1026   1.285       .  A
O90       Ni1950   1.932       .  S
O90          C97   1.284       .  A
O91         Ni94   1.906       .  S
O91        C1024   1.279       .  A
O92       Ni1950   1.904       .  S
O92          C95   1.280       .  A
Ni93      Ni1950   2.386       .  S
Ni94       O1018   1.932       .  S
Ni94       O1020   1.904       .  S
Ni94      Ni1021   2.386       .  S
C95         C523   1.482       .  S
C96        O1947   1.279   1_554  A
C96         C545   1.480       .  S
C97         C787   1.483       .  S
C98        O1945   1.285       .  A
C98         C621   1.483       .  S
O99        Ni107   1.926       .  S
O99         C109   1.283       .  A
O100       Ni107   1.923       .  S
O100        C110   1.283       .  A
O101       Ni107   1.901       .  S
O101        C111   1.279       .  A
O102       Ni107   1.905       .  S
O102        C112   1.279       .  A
O103       Ni108   1.930       .  S
O103        C112   1.285       .  A
O104       Ni108   1.936       .  S
O104        C111   1.285       .  A
O105       Ni108   1.911       .  S
O105        C110   1.280       .  A
O106       Ni108   1.908       .  S
O106        C109   1.280       .  A
Ni107      Ni108   2.386       .  S
C109        C501   1.480       .  S
C110        C533   1.481       .  S
C111        C677   1.486       .  S
C112        C577   1.483       .  S
O113      Ni1977   1.930       .  S
O113       C1979   1.284   1_554  A
O114       Ni121   1.934       .  S
O114        C124   1.285       .  A
O115       Ni121   1.905       .  S
O115        C125   1.279       .  A
O116       Ni121   1.900       .  S
O116        C126   1.279       .  A
O117       Ni122   1.935       .  S
O117        C126   1.284       .  A
O118       Ni122   1.929       .  S
O118        C125   1.284       .  A
O119       Ni122   1.905       .  S
O119        C124   1.279       .  A
O120       Ni122   1.907       .  S
O120        C123   1.280       .  A
Ni121      O1041   1.930       .  S
Ni121      Ni122   2.387       .  S
C123       O1041   1.284       .  A
C123        C423   1.481       .  S
C124        C479   1.482       .  S
C125        C445   1.477       .  S
C126        C599   1.479       .  S
O127       Ni135   1.925       .  S
O127        C137   1.282       .  A
O128       Ni135   1.930       .  S
O128        C138   1.285       .  A
O129       Ni135   1.907       .  S
O129        C139   1.279       .  A
O130       Ni135   1.909       .  S
O130        C140   1.280       .  A
O131       Ni136   1.927       .  S
O131        C140   1.283       .  A
O132       Ni136   1.929       .  S
O132        C139   1.284       .  A
O133       Ni136   1.907       .  S
O133        C138   1.279       .  A
O134       Ni136   1.910       .  S
O134        C137   1.281       .  A
Ni135      Ni136   2.388       .  S
C137        C391   1.480       .  S
C138        C467   1.482       .  S
C139        C401   1.476       .  S
C140        C511   1.477       .  S
O141       Ni149   1.927       .  S
O141        C151   1.283       .  A
O142       Ni149   1.925       .  S
O142        C152   1.284       .  A
O143       Ni149   1.913       .  S
O143        C153   1.281       .  A
O144       Ni149   1.908       .  S
O144        C154   1.281       .  A
O145       Ni150   1.926       .  S
O145       C2010   1.283   1_554  A
O146       Ni150   1.921       .  S
O146       C2009   1.283   1_554  A
O147       Ni150   1.908       .  S
O147       C2008   1.279   1_554  A
O148      Ni1078   1.905       .  S
O148        C151   1.280       .  A
Ni149     Ni1078   2.387       .  S
Ni150      O2004   1.904   1_554  S
Ni150     Ni2005   2.387   1_554  S
C151        C335   1.478       .  S
C152       O1075   1.279       .  A
C152       C1285   1.479       .  S
C153       O1074   1.283       .  A
C153        C457   1.482       .  S
C154       O1073   1.283       .  A
C154        C567   1.483       .  S
O155       Ni163   1.928       .  S
O155        C165   1.283       .  A
O156       Ni163   1.925       .  S
O156        C166   1.284       .  A
O157       Ni163   1.906       .  S
O157        C167   1.279       .  A
O158       Ni163   1.909       .  S
O158        C168   1.281       .  A
O159       Ni164   1.925       .  S
O159        C168   1.283       .  A
O160       Ni164   1.928       .  S
O160        C167   1.284       .  A
O161       Ni164   1.907       .  S
O161        C166   1.280       .  A
O162       Ni164   1.904       .  S
O162        C165   1.280       .  A
Ni163      Ni164   2.387       .  S
C165        C325   1.479       .  S
C166        C369   1.479       .  S
C167        C413   1.482       .  S
C168        C489   1.482       .  S
O169       Ni177   1.930       .  S
O169        C179   1.283   1_556  A
O170       Ni177   1.932       .  S
O170        C180   1.285   1_556  A
O171       Ni177   1.904       .  S
O171        C181   1.280   1_556  A
O172       Ni177   1.909       .  S
O172        C182   1.279   1_556  A
O173       Ni178   1.927       .  S
O173        C182   1.284       .  A
O174       Ni178   1.932       .  S
O174        C181   1.284       .  A
O175       Ni178   1.905       .  S
O175        C180   1.279       .  A
O176       Ni178   1.907       .  S
O176        C179   1.280       .  A
Ni177      Ni178   2.387   1_556  S
C179        C875   1.481   1_554  S
C180        C303   1.481       .  S
C181        C435   1.484       .  S
C182        C269   1.477       .  S
O183       Ni191   1.926       .  S
O183        C193   1.283       .  A
O184       Ni191   1.923       .  S
O184        C194   1.283       .  A
O185       Ni191   1.902       .  S
O185        C195   1.280       .  A
O186       Ni191   1.902       .  S
O186        C196   1.279       .  A
O187       Ni192   1.929       .  S
O187        C196   1.285       .  A
O188       Ni192   1.930       .  S
O188        C195   1.284       .  A
O189       Ni192   1.914       .  S
O189        C194   1.280       .  A
O190       Ni192   1.912       .  S
O190        C193   1.281       .  A
Ni191      Ni192   2.386       .  S
C193        C743   1.482       .  S
C194        C291   1.481       .  S
C195        C347   1.482       .  S
C196        C259   1.481       .  S
O197       Ni205   1.928       .  S
O197        C207   1.283       .  A
O198       Ni205   1.928       .  S
O198        C208   1.284   1_554  A
O199       Ni205   1.902       .  S
O199        C209   1.279       .  A
O200       Ni205   1.903       .  S
O200        C210   1.279       .  A
O201       Ni206   1.931       .  S
O201       C1138   1.285       .  A
O202       Ni206   1.932       .  S
O202       C1137   1.284       .  A
O203       Ni206   1.904       .  S
O203       C1136   1.279       .  A
O204      Ni2062   1.904       .  S
O204        C207   1.280   1_556  A
Ni205     Ni2062   2.387   1_554  S
Ni206      O1132   1.904       .  S
Ni206     Ni1133   2.387       .  S
C207        C809   1.479       .  S
C208       O2059   1.279       .  A
C208       C2081   1.479       .  S
C209       O2058   1.284   1_554  A
C209        C379   1.477       .  S
C210       O2057   1.285   1_554  A
C210        C281   1.483       .  S
O211       Ni219   1.925       .  S
O211        C221   1.283       .  A
O212       Ni219   1.929       .  S
O212        C222   1.285       .  A
O213       Ni219   1.906       .  S
O213        C223   1.280       .  A
O214       Ni219   1.907       .  S
O214        C224   1.279       .  A
O215       Ni220   1.926       .  S
O215        C224   1.284       .  A
O216       Ni220   1.927       .  S
O216        C223   1.283       .  A
O217       Ni220   1.901       .  S
O217        C222   1.278       .  A
O218       Ni220   1.904       .  S
O218        C221   1.280       .  A
Ni219      Ni220   2.388       .  S
C221        C687   1.476       .  S
C222        C237   1.479       .  S
C223        C313   1.477       .  S
C224        C247   1.477       .  S
C225       C1136   1.479       .  S
C225        C226   1.402       .  A
C225       C1158   1.400       .  A
C226        C227   1.394       .  A
C226        H239   1.083       .  S
C227        C228   1.413       .  A
C227        H240   1.077       .  S
C228        C234   1.429       .  A
C228       C1157   1.424       .  A
C229        C231   1.398       .  A
C229        C230   1.406       .  A
C229       C2084   1.424   1_554  A
C230       C2081   1.400   1_554  A
C230        H241   1.085       .  S
C231        C232   1.389       .  A
C231        H242   1.084       .  S
C232       C2089   1.399   1_554  A
C232        H243   1.084       .  S
C233        C234   1.421       .  A
C233        C238   1.402       .  A
C233       C1160   1.399       .  A
C234        C235   1.417       .  A
C235        C236   1.398       .  A
C235        H244   1.077       .  S
C236        C237   1.399       .  A
C236        H245   1.083       .  S
C237        C238   1.403       .  A
C238        H246   1.085       .  S
C247        C248   1.398       .  A
C247        C252   1.403       .  A
C248        C249   1.397       .  A
C248        H261   1.084       .  S
C249        C250   1.416       .  A
C249        H262   1.076       .  S
C250        C256   1.429       .  A
C250        C251   1.421       .  A
C251        C253   1.400       .  A
C251        C252   1.403       .  A
C252        H263   1.085       .  S
C253        C254   1.390       .  A
C253        H264   1.083       .  S
C254        C255   1.399       .  A
C254        H265   1.084       .  S
C255        C256   1.424       .  A
C255        C260   1.407       .  A
C256        C257   1.412       .  A
C257        C258   1.393       .  A
C257        H266   1.077       .  S
C258        C259   1.403       .  A
C258        H267   1.083       .  S
C259        C260   1.402       .  A
C260        H268   1.084       .  S
C269        C270   1.398       .  A
C269        C274   1.402   1_554  A
C270        C271   1.397       .  A
C270        H283   1.084       .  S
C271        C272   1.417       .  A
C271        H284   1.076       .  S
C272        C278   1.430       .  A
C272        C273   1.421   1_554  A
C273        C275   1.400       .  A
C273        C274   1.404       .  A
C274        H285   1.085       .  S
C275        C276   1.390       .  A
C275       H2142   1.083       .  S
C276        C277   1.399       .  A
C276       H2143   1.084       .  S
C277        C278   1.424   1_556  A
C277        C282   1.408       .  A
C278        C279   1.412       .  A
C279        C280   1.393       .  A
C279        H288   1.077       .  S
C280        C281   1.403       .  A
C280        H289   1.083       .  S
C281        C282   1.402   1_554  A
C282        H290   1.084       .  S
H286       C1203   1.083       .  S
H287       C1204   1.084       .  S
C291        C292   1.399       .  A
C291        C296   1.404       .  A
C292        C293   1.396       .  A
C292        H305   1.083       .  S
C293        C294   1.415       .  A
C293        H306   1.077       .  S
C294        C300   1.430       .  A
C294        C295   1.421       .  A
C295        C297   1.400       .  A
C295        C296   1.406       .  A
C296        H307   1.085       .  S
C297        C298   1.391       .  A
C297        H308   1.083   1_554  S
C298        C299   1.399       .  A
C298        H309   1.084   1_554  S
C299        C300   1.424       .  A
C299        C304   1.408       .  A
C300        C301   1.413       .  A
C301        C302   1.394       .  A
C301        H310   1.077       .  S
C302        C303   1.402       .  A
C302        H311   1.084       .  S
C303        C304   1.402       .  A
C304        H312   1.085   1_554  S
C313        C314   1.399       .  A
C313        C318   1.403       .  A
C314        C315   1.390       .  A
C314        H327   1.084       .  S
C315        C316   1.413   1_565  A
C315        H328   1.076   1_565  S
C316        C322   1.427       .  A
C316        C317   1.423       .  A
C317        C319   1.401       .  A
C317        C318   1.409   1_545  A
C318        H329   1.084       .  S
C319        C320   1.393       .  A
C319        H330   1.083       .  S
C320        C321   1.401       .  A
C320        H331   1.084       .  S
C321        C322   1.423       .  A
C321        C326   1.410       .  A
C322        C323   1.412       .  A
C323        C324   1.390       .  A
C323        H332   1.076       .  S
C324        C325   1.400       .  A
C324        H333   1.084       .  S
C325        C326   1.404       .  A
C326        H334   1.084       .  S
C335        C336   1.401       .  A
C335        C340   1.400       .  A
C336        C337   1.402       .  A
C336        H349   1.083       .  S
C337        C338   1.417       .  A
C337        H350   1.078       .  S
C338        C344   1.432       .  A
C338        C339   1.423       .  A
C339        C341   1.397       .  A
C339        C340   1.398       .  A
C340        H351   1.085       .  S
C341        C342   1.384       .  A
C341       H1280   1.084       .  S
C342        C343   1.397       .  A
C342        H353   1.084       .  S
C343        C344   1.422       .  A
C343        C348   1.398       .  A
C344        C345   1.417       .  A
C345        C346   1.403       .  A
C345        H354   1.077       .  S
C346        C347   1.402       .  A
C346        H355   1.083       .  S
C347        C348   1.401       .  A
C348        H356   1.085       .  S
H352       C2197   1.084       .  S
C357       C2008   1.479   1_554  S
C357        C358   1.402       .  A
C357       C2218   1.400   1_554  A
C358        C359   1.395       .  A
C358        H371   1.083       .  S
C359        C360   1.414       .  A
C359        H372   1.077       .  S
C360        C366   1.430       .  A
C360        C361   1.424   1_554  A
C361       C2219   1.398       .  A
C361       C2218   1.405       .  A
C362       C1285   1.400       .  A
C362       C1289   1.405       .  A
C362        H373   1.085       .  S
C363       C1289   1.398       .  A
C363       C1292   1.389       .  A
C363        H374   1.084       .  S
C364        C365   1.399   1_556  A
C364       C2219   1.389       .  A
C364       H2231   1.084       .  S
C365        C366   1.421       .  A
C365        C370   1.403       .  A
C366        C367   1.416       .  A
C367        C368   1.398       .  A
C367        H376   1.077       .  S
C368        C369   1.399       .  A
C368        H377   1.083       .  S
C369        C370   1.403       .  A
C370        H378   1.085   1_554  S
H375       C1292   1.084       .  S
C379        C380   1.400   1_554  A
C379        C384   1.399       .  A
C380        C381   1.403   1_565  A
C380       H2249   1.083       .  S
C381        C382   1.418   1_556  A
C381        H394   1.077       .  S
C382        C388   1.432       .  A
C382        C383   1.422   1_545  A
C383        C385   1.397   1_565  A
C383        C384   1.398       .  A
C384        H395   1.085       .  S
C385        C386   1.384       .  A
C385        H396   1.084   1_545  S
C386        C387   1.397       .  A
C386        H397   1.084       .  S
C387        C388   1.423       .  A
C387        C392   1.399       .  A
C388        C389   1.417       .  A
C389        C390   1.402       .  A
C389        H398   1.078   1_554  S
C390        C391   1.402       .  A
C390        H399   1.083   1_554  S
C391        C392   1.400       .  A
C392        H400   1.085       .  S
H393       C1308   1.083       .  S
C401        C402   1.401       .  A
C401        C406   1.399       .  A
C402        C403   1.395       .  A
C402        H415   1.084       .  S
C403        C404   1.413       .  A
C403        H416   1.077       .  S
C404        C410   1.431       .  A
C404        C405   1.425       .  A
C405        C407   1.398       .  A
C405        C406   1.406       .  A
C406        H417   1.085       .  S
C407        C408   1.389       .  A
C407        H418   1.083       .  S
C408        C409   1.399       .  A
C408        H419   1.084       .  S
C409        C410   1.421       .  A
C409        C414   1.402       .  A
C410        C411   1.417       .  A
C411        C412   1.399       .  A
C411        H420   1.077       .  S
C412        C413   1.400       .  A
C412        H421   1.083       .  S
C413        C414   1.403       .  A
C414        H422   1.084       .  S
C423        C424   1.400       .  A
C423       C1356   1.404       .  A
C424        C425   1.391       .  A
C424        H437   1.084       .  S
C425       C1354   1.413       .  A
C425        H438   1.076       .  S
C426        C432   1.429       .  A
C426        C427   1.423       .  A
C426       C2281   1.413   1_554  A
C427        C429   1.401       .  A
C427        C428   1.411       .  A
C428       C2279   1.404   1_554  A
C428        H439   1.084       .  S
C429        C430   1.394       .  A
C429        H440   1.084       .  S
C430        C431   1.401       .  A
C430        H441   1.084       .  S
C431        C432   1.423       .  A
C431        C436   1.411       .  A
C432       C2289   1.412   1_554  A
C433        C434   1.390       .  A
C433       C1360   1.412       .  A
C433        H442   1.076       .  S
C434       C1363   1.402       .  A
C434        H443   1.083       .  S
C435        C436   1.405       .  A
C435       C2290   1.402   1_554  A
C436        H444   1.084       .  S
C445        C446   1.401       .  A
C445        C450   1.401       .  A
C446       C1375   1.393       .  A
C446       H1387   1.084       .  S
C447       C2302   1.393       .  A
C447       C2304   1.413   1_554  A
C447        H460   1.076       .  S
C448        C454   1.429       .  A
C448        C449   1.424       .  A
C448       C1375   1.413       .  A
C449        C451   1.399       .  A
C449        C450   1.408       .  A
C450        H461   1.085       .  S
C451        C452   1.391       .  A
C451        H462   1.084       .  S
C452        C453   1.400       .  A
C452        H463   1.084       .  S
C453        C454   1.421       .  A
C453        C458   1.405       .  A
C454       C1383   1.415       .  A
C455        C456   1.396       .  A
C455       C2310   1.415   1_554  A
C455        H464   1.076       .  S
C456       C2313   1.400   1_554  A
C456        H465   1.083       .  S
C457        C458   1.404       .  A
C457       C1384   1.400       .  A
C458        H466   1.084       .  S
H459       C2302   1.084       .  S
C467        C468   1.403       .  A
C467        C472   1.400       .  A
C468        C469   1.397       .  A
C468        H481   1.083       .  S
C469        C470   1.414       .  A
C469        H482   1.078       .  S
C470        C476   1.432       .  A
C470        C471   1.424       .  A
C471        C473   1.398       .  A
C471        C472   1.406       .  A
C472        H483   1.085       .  S
C473        C474   1.389       .  A
C473        H484   1.084       .  S
C474        C475   1.399       .  A
C474        H485   1.084       .  S
C475        C476   1.421       .  A
C475        C480   1.403       .  A
C476        C477   1.417       .  A
C477        C478   1.401       .  A
C477        H486   1.077       .  S
C478        C479   1.399       .  A
C478        H487   1.083       .  S
C479        C480   1.403       .  A
C480        H488   1.085       .  S
C489        C490   1.402       .  A
C489        C494   1.401       .  A
C490        C491   1.401   1_655  A
C490        H503   1.083       .  S
C491        C492   1.416       .  A
C491        H504   1.077       .  S
C492        C498   1.432       .  A
C492        C493   1.422   1_455  A
C493        C495   1.398   1_655  A
C493        C494   1.400       .  A
C494        H505   1.085       .  S
C495        C496   1.386       .  A
C495        H506   1.084   1_455  S
C496        C497   1.398       .  A
C496        H507   1.084       .  S
C497        C498   1.422       .  A
C497        C502   1.400       .  A
C498        C499   1.417       .  A
C499        C500   1.401       .  A
C499        H508   1.077       .  S
C500        C501   1.401       .  A
C500        H509   1.083       .  S
C501        C502   1.401       .  A
C502        H510   1.085       .  S
C511        C512   1.399       .  A
C511        C516   1.403       .  A
C512        C513   1.391       .  A
C512        H525   1.084       .  S
C513        C514   1.414       .  A
C513        H526   1.076       .  S
C514        C520   1.429       .  A
C514        C515   1.423       .  A
C515        C517   1.401       .  A
C515        C516   1.410       .  A
C516        H527   1.084       .  S
C517        C518   1.394       .  A
C517        H528   1.083       .  S
C518        C519   1.401       .  A
C518        H529   1.084       .  S
C519        C520   1.423       .  A
C519        C524   1.411       .  A
C520        C521   1.412       .  A
C521        C522   1.391       .  A
C521        H530   1.076   1_554  S
C522        C523   1.401       .  A
C522        H531   1.084   1_554  S
C523        C524   1.404       .  A
C524        H532   1.084       .  S
C533        C534   1.402       .  A
C533        C538   1.401       .  A
C534        C535   1.397       .  A
C534        H547   1.083       .  S
C535        C536   1.414       .  A
C535       H1476   1.078       .  S
C536        C542   1.431       .  A
C536        C537   1.424       .  A
C537        C539   1.398       .  A
C537        C538   1.405       .  A
C538        H549   1.085       .  S
C539        C540   1.388       .  A
C539        H550   1.084       .  S
C540        C541   1.399       .  A
C540        H551   1.084       .  S
C541        C542   1.421       .  A
C541        C546   1.403       .  A
C542       C1471   1.416       .  A
C543        C544   1.399       .  A
C543       C2398   1.416       .  A
C543        H552   1.077       .  S
C544        C545   1.399       .  A
C544        H553   1.083       .  S
C545       C2402   1.403   1_554  A
C546       C1473   1.403       .  A
C546        H554   1.085       .  S
H548       C2391   1.078       .  S
C555        C556   1.401       .  A
C555        C560   1.401       .  A
C556        C557   1.400       .  A
C556        H569   1.083       .  S
C557        C558   1.417       .  A
C557        H570   1.077       .  S
C558        C564   1.432       .  A
C558        C559   1.423       .  A
C559        C561   1.398       .  A
C559        C560   1.401       .  A
C560        H571   1.085       .  S
C561        C562   1.386       .  A
C561        H572   1.084       .  S
C562        C563   1.398   1_455  A
C562        H573   1.084   1_455  S
C563        C564   1.422   1_655  A
C563        C568   1.401       .  A
C564        C565   1.416   1_455  A
C565        C566   1.401       .  A
C565       H1502   1.077   1_655  S
C566        C567   1.402       .  A
C566       H1503   1.083       .  S
C567        C568   1.402       .  A
C568        H576   1.085       .  S
H574       C2421   1.077   1_455  S
H575       C2422   1.083       .  S
C577        C578   1.403       .  A
C577        C582   1.402       .  A
C578        C579   1.394       .  A
C578        H591   1.083       .  S
C579        C580   1.412       .  A
C579        H592   1.077       .  S
C580        C586   1.430       .  A
C580        C581   1.424       .  A
C581        C583   1.399       .  A
C581        C582   1.407       .  A
C582        H593   1.084       .  S
C583        C584   1.390       .  A
C583        H594   1.084       .  S
C584        C585   1.400       .  A
C584        H595   1.084       .  S
C585        C586   1.421       .  A
C585        C590   1.403       .  A
C586        C587   1.417       .  A
C587        C588   1.398       .  A
C587        H596   1.077       .  S
C588        C589   1.399       .  A
C588        H597   1.084       .  S
C589        C590   1.402       .  A
C590        H598   1.085       .  S
C599        C604   1.403       .  A
C599       C1528   1.400       .  A
C600        C601   1.389       .  A
C600       C2455   1.400   1_554  A
C600        H613   1.084       .  S
C601       C2458   1.412   1_554  A
C601        H614   1.076       .  S
C602        C603   1.424       .  A
C602       C1529   1.412       .  A
C602       C1536   1.428       .  A
C603        C605   1.401       .  A
C603        C604   1.412       .  A
C604        H615   1.084       .  S
C605        C606   1.394       .  A
C605        H616   1.084       .  S
C606        C607   1.401       .  A
C606        H617   1.083       .  S
C607        C612   1.411       .  A
C607       C1536   1.422       .  A
C608        C609   1.413       .  A
C608       C2458   1.428   1_554  A
C608       C2463   1.422   1_554  A
C609        C610   1.390       .  A
C609        H618   1.076       .  S
C610        C611   1.400       .  A
C610        H619   1.084       .  S
C611       C2468   1.405   1_554  A
C612       C1539   1.405       .  A
C612        H620   1.084       .  S
C621        C622   1.403       .  A
C621        C626   1.402       .  A
C622        C623   1.392       .  A
C622        H635   1.083       .  S
C623        C624   1.412       .  A
C623        H636   1.077       .  S
C624        C630   1.430       .  A
C624        C625   1.424       .  A
C625        C627   1.400   1_554  A
C625        C626   1.409       .  A
C626        H637   1.084   1_554  S
C627        C628   1.391       .  A
C627        H638   1.084       .  S
C628        C629   1.400   1_556  A
C628        H639   1.083       .  S
C629        C630   1.421       .  A
C629        C634   1.405       .  A
C630        C631   1.416       .  A
C631        C632   1.396       .  A
C631        H640   1.076       .  S
C632        C633   1.398       .  A
C632        H641   1.084       .  S
C633        C634   1.403       .  A
C634        H642   1.085   1_554  S
C643        C644   1.402       .  A
C643        C648   1.401       .  A
C644        C645   1.395       .  A
C644        H657   1.083       .  S
C645        C646   1.414       .  A
C645        H658   1.077       .  S
C646        C652   1.430       .  A
C646        C647   1.424       .  A
C647        C649   1.399       .  A
C647        C648   1.406       .  A
C648        H659   1.085       .  S
C649        C650   1.389       .  A
C649        H660   1.084   1_554  S
C650        C651   1.400       .  A
C650        H661   1.084       .  S
C651        C652   1.421       .  A
C651        C656   1.404       .  A
C652        C653   1.416       .  A
C653        C654   1.398       .  A
C653        H662   1.077       .  S
C654        C655   1.400       .  A
C654        H663   1.083       .  S
C655        C656   1.403       .  A
C656        H664   1.085       .  S
C665        C666   1.402       .  A
C665        C670   1.400       .  A
C666        C667   1.404       .  A
C666        H679   1.083       .  S
C667        C668   1.418   1_565  A
C667        H680   1.078       .  S
C668        C674   1.434       .  A
C668        C669   1.423   1_545  A
C669        C671   1.397   1_565  A
C669        C670   1.399       .  A
C670        H681   1.085       .  S
C671        C672   1.384       .  A
C671        H682   1.084       .  S
C672        C673   1.397       .  A
C672        H683   1.084       .  S
C673        C674   1.422       .  A
C673        C678   1.398       .  A
C674        C675   1.418       .  A
C675        C676   1.405       .  A
C675        H684   1.078       .  S
C676        C677   1.403       .  A
C676        H685   1.083       .  S
C677        C678   1.402       .  A
C678        H686   1.085       .  S
C687        C688   1.399       .  A
C687        C692   1.403       .  A
C688        C689   1.389       .  A
C688        H701   1.084       .  S
C689        C690   1.413   1_655  A
C689        H702   1.076   1_655  S
C690        C696   1.426       .  A
C690        C691   1.422   1_455  A
C691        C693   1.400   1_655  A
C691        C692   1.408       .  A
C692        H703   1.084       .  S
C693        C694   1.393       .  A
C693        H704   1.084   1_455  S
C694        C695   1.401       .  A
C694        H705   1.084       .  S
C695        C696   1.422       .  A
C695        C700   1.408       .  A
C696        C697   1.412       .  A
C697        C698   1.388       .  A
C697        H706   1.076       .  S
C698        C699   1.401       .  A
C698        H707   1.083       .  S
C699        C700   1.404       .  A
C700        H708   1.084       .  S
C709        C710   1.400       .  A
C709        C714   1.404       .  A
C710        C711   1.390       .  A
C710        H723   1.084       .  S
C711        C712   1.412       .  A
C711        H724   1.076       .  S
C712        C718   1.428       .  A
C712        C713   1.422       .  A
C713        C715   1.401       .  A
C713        C714   1.410       .  A
C714        H725   1.084       .  S
C715        C716   1.394       .  A
C715        H726   1.083       .  S
C716        C717   1.401       .  A
C716        H727   1.084       .  S
C717        C718   1.423       .  A
C717        C722   1.411       .  A
C718        C719   1.412       .  A
C719        C720   1.389       .  A
C719        H728   1.076       .  S
C720        C721   1.401       .  A
C720        H729   1.083       .  S
C721        C722   1.405       .  A
C722        H730   1.084       .  S
C731        C732   1.402       .  A
C731        C736   1.402       .  A
C732        C733   1.402       .  A
C732       H1673   1.083       .  S
C733        C734   1.416       .  A
C733       H1674   1.077       .  S
C734        C740   1.433       .  A
C734        C735   1.422       .  A
C735        C737   1.398       .  A
C735        C736   1.401       .  A
C736        H747   1.085       .  S
C737        C738   1.386       .  A
C737        H748   1.084       .  S
C738        C739   1.398   1_455  A
C738        H749   1.084       .  S
C739        C740   1.423   1_655  A
C739        C744   1.402       .  A
C740        C741   1.417   1_455  A
C741        C742   1.401       .  A
C741        H750   1.077       .  S
C742        C743   1.402       .  A
C742        H751   1.083       .  S
C743        C744   1.401       .  A
C744        H752   1.085       .  S
H745       C2588   1.083       .  S
H746       C2589   1.077       .  S
C753       C1896   1.481   1_554  S
C753        C754   1.399   1_554  A
C753        C758   1.403       .  A
C754        C755   1.399       .  A
C754        H767   1.083       .  S
C755        C756   1.417   1_556  A
C755        H768   1.077       .  S
C756        C762   1.431       .  A
C756        C757   1.421       .  A
C757        C759   1.399       .  A
C757        C758   1.403       .  A
C758        H769   1.085       .  S
C759        C760   1.389       .  A
C759        H770   1.084       .  S
C760        C761   1.398       .  A
C760        H771   1.084       .  S
C761        C762   1.424       .  A
C761        C766   1.406       .  A
C762        C763   1.413       .  A
C763        C764   1.395       .  A
C763        H772   1.077   1_554  S
C764        C765   1.403       .  A
C764        H773   1.083       .  S
C765        C766   1.400       .  A
C766        H774   1.085       .  S
C775        C776   1.400       .  A
C775        C780   1.403       .  A
C776        C777   1.391       .  A
C776        H789   1.084       .  S
C777        C778   1.413   1_565  A
C777        H790   1.076   1_565  S
C778        C784   1.429       .  A
C778        C779   1.422   1_545  A
C779        C781   1.401   1_564  A
C779        C780   1.409       .  A
C780        H791   1.084       .  S
C781        C782   1.393       .  A
C781        H792   1.083   1_545  S
C782        C783   1.401   1_556  A
C782        H793   1.084       .  S
C783        C784   1.423       .  A
C783        C788   1.410       .  A
C784        C785   1.412       .  A
C785        C786   1.390       .  A
C785        H794   1.076       .  S
C786        C787   1.402       .  A
C786        H795   1.083       .  S
C787        C788   1.404       .  A
C788        H796   1.084   1_554  S
C797        C798   1.399       .  A
C797        C802   1.403       .  A
C798        C799   1.390       .  A
C798        H811   1.084       .  S
C799        C800   1.413       .  A
C799        H812   1.076   1_554  S
C800        C806   1.428       .  A
C800        C801   1.423       .  A
C801        C803   1.401       .  A
C801        C802   1.409       .  A
C802        H813   1.084       .  S
C803        C804   1.393       .  A
C803        H814   1.084       .  S
C804        C805   1.400       .  A
C804        H815   1.083       .  S
C805        C806   1.423       .  A
C805        C810   1.409       .  A
C806        C807   1.412       .  A
C807        C808   1.390       .  A
C807        H816   1.076   1_554  S
C808        C809   1.400       .  A
C808       H2673   1.084   1_554  S
C809        C810   1.403       .  A
C810        H818   1.084       .  S
H817       C1736   1.084       .  S
C819        C820   1.402       .  A
C819        C824   1.401       .  A
C820        C821   1.394       .  A
C820        H833   1.083       .  S
C821        C822   1.413       .  A
C821        H834   1.077       .  S
C822        C828   1.429       .  A
C822        C823   1.423       .  A
C823        C825   1.399       .  A
C823        C824   1.405       .  A
C824        H835   1.084       .  S
C825        C826   1.389       .  A
C825        H836   1.084   1_554  S
C826        C827   1.399       .  A
C826        H837   1.084   1_554  S
C827        C828   1.421       .  A
C827        C832   1.402       .  A
C828        C829   1.417       .  A
C829        C830   1.397       .  A
C829        H838   1.077       .  S
C830        C831   1.399       .  A
C830        H839   1.084       .  S
C831        C832   1.402       .  A
C832        H840   1.085       .  S
C841        C842   1.401       .  A
C841        C846   1.400       .  A
C842       C1771   1.402       .  A
C842        H855   1.083       .  S
C843        C844   1.417       .  A
C843       C2698   1.402       .  A
C843        H856   1.078       .  S
C844        C850   1.432       .  A
C844        C845   1.422   1_554  A
C845        C847   1.398       .  A
C845       C2702   1.399       .  A
C846       C1773   1.399       .  A
C846        H857   1.085       .  S
C847        C848   1.385       .  A
C847       H2714   1.084       .  S
C848        C849   1.398       .  A
C848        H859   1.084       .  S
C849        C850   1.422   1_556  A
C849        C854   1.400       .  A
C850        C851   1.416       .  A
C851        C852   1.401       .  A
C851        H860   1.077       .  S
C852        C853   1.402       .  A
C852        H861   1.083       .  S
C853        C854   1.401   1_554  A
C854        H862   1.085       .  S
H858       C1775   1.084       .  S
C863        C864   1.403       .  A
C863       C1796   1.402       .  A
C864        C865   1.404       .  A
C864        H877   1.083       .  S
C865        C866   1.418       .  A
C865        H878   1.078       .  S
C866        C872   1.433       .  A
C866       C1795   1.422       .  A
C867        C869   1.398       .  A
C867        C868   1.399       .  A
C867       C2722   1.422   1_554  A
C868       C2719   1.402   1_554  A
C868        H879   1.085       .  S
C869        C870   1.384       .  A
C869        H880   1.084       .  S
C870        C871   1.398       .  A
C870        H881   1.084       .  S
C871        C876   1.399       .  A
C871       C2728   1.423   1_554  A
C872        C873   1.417       .  A
C872       C1799   1.423       .  A
C873        C874   1.403       .  A
C873        H882   1.078       .  S
C874       C1803   1.402       .  A
C874        H883   1.083       .  S
C875        C876   1.400   1_556  A
C875       C2730   1.402       .  A
C876        H884   1.085       .  S
C885        C886   1.403       .  A
C885        C890   1.402       .  A
C886        C887   1.396       .  A
C886       H1827   1.083       .  S
C887        C888   1.413       .  A
C887       H1828   1.077       .  S
C888        C894   1.431       .  A
C888        C889   1.424       .  A
C889        C891   1.399       .  A
C889        C890   1.407       .  A
C890        H901   1.084       .  S
C891        C892   1.389       .  A
C891        H902   1.084       .  S
C892        C893   1.399       .  A
C892        H903   1.084       .  S
C893        C894   1.421       .  A
C893        C898   1.404       .  A
C894       C1823   1.417       .  A
C895        C896   1.399       .  A
C895       C2750   1.417   1_554  A
C895        H904   1.077       .  S
C896       C2753   1.399   1_554  A
C896        H905   1.084       .  S
C897        C898   1.402       .  A
C897       C1824   1.399       .  A
C898        H906   1.085       .  S
H899       C2742   1.083       .  S
H900       C2743   1.077       .  S
C907        C908   1.402       .  A
C907        C912   1.400       .  A
C908        C909   1.396       .  A
C908        H921   1.083       .  S
C909        C910   1.414       .  A
C909        H922   1.077       .  S
C910        C916   1.430       .  A
C910        C911   1.424       .  A
C911        C913   1.398       .  A
C911        C912   1.404       .  A
C912        H923   1.085       .  S
C913        C914   1.388       .  A
C913        H924   1.084       .  S
C914        C915   1.399       .  A
C914        H925   1.084       .  S
C915        C916   1.421       .  A
C915        C920   1.402       .  A
C916        C917   1.416       .  A
C917        C918   1.399       .  A
C917        H926   1.077       .  S
C918        C919   1.400       .  A
C918        H927   1.083       .  S
C919        C920   1.403       .  A
C920        H928   1.085       .  S
O929       Ni937   1.927       .  S
O929        C939   1.283       .  A
O930       Ni937   1.924       .  S
O930        C940   1.284       .  A
O931       Ni937   1.908       .  S
O931        C941   1.280       .  A
O932       Ni937   1.902       .  S
O932        C942   1.279       .  A
O933       Ni938   1.935       .  S
O933        C942   1.285       .  A
O934       Ni938   1.930       .  S
O934        C941   1.285       .  A
O935       Ni938   1.908       .  S
O935        C940   1.279       .  A
O936       Ni938   1.905       .  S
O936        C939   1.280       .  A
Ni937      Ni938   2.386       .  S
C939       C1769   1.479       .  S
C940       C1835   1.479       .  S
C941       C1813   1.484       .  S
C942       C1791   1.485       .  S
O943       Ni951   1.926       .  S
O943        C953   1.283       .  A
O944       Ni951   1.930       .  S
O944        C954   1.285       .  A
O945       Ni951   1.907       .  S
O945        C955   1.279       .  A
O946       Ni951   1.905       .  S
O946        C956   1.280       .  A
O947       Ni952   1.927       .  S
O947        C956   1.283       .  A
O948       Ni952   1.926       .  S
O948        C955   1.283       .  A
O949       Ni952   1.905       .  S
O949        C954   1.279       .  A
O950       Ni952   1.909       .  S
O950        C953   1.281       .  A
Ni951      Ni952   2.388       .  S
C953       C1703   1.479       .  S
C954       C1847   1.481       .  S
C955       C1759   1.476       .  S
C956       C1725   1.477       .  S
O957       Ni965   1.929       .  S
O957        C967   1.283       .  A
O958       Ni965   1.931       .  S
O958        C968   1.285       .  A
O959       Ni965   1.909       .  S
O959        C969   1.280       .  A
O960       Ni965   1.908       .  S
O960        C970   1.280       .  A
O961       Ni966   1.930       .  S
O962       Ni966   1.930       .  S
O963       Ni966   1.904       .  S
O964      Ni1894   1.905       .  S
O964        C967   1.280       .  A
Ni965     Ni1894   2.386       .  S
C967       C1637   1.480       .  S
C968       O1891   1.279       .  A
C968       C2609   1.481       .  S
C969       O1890   1.284       .  A
C969       C1825   1.480       .  S
C970       O1889   1.284       .  A
C970       C1659   1.485       .  S
O971       Ni979   1.932       .  S
O971        C981   1.284       .  A
O972       Ni979   1.930       .  S
O972        C982   1.285       .  A
O973       Ni979   1.907       .  S
O973        C983   1.280       .  A
O974       Ni979   1.900       .  S
O974        C984   1.279       .  A
O975       Ni980   1.927       .  S
O975        C984   1.283       .  A
O976       Ni980   1.923       .  S
O976        C983   1.283       .  A
O977       Ni980   1.906       .  S
O977        C982   1.279       .  A
O978       Ni980   1.905       .  S
O978        C981   1.280       .  A
Ni979      Ni980   2.387       .  S
C981       C1593   1.482       .  S
C982       C1693   1.481       .  S
C983       C1747   1.480       .  S
C984       C1627   1.479       .  S
O985       Ni993   1.927       .  S
O985        C995   1.283       .  A
O986       Ni993   1.929       .  S
O986        C996   1.284       .  A
O987       Ni993   1.909       .  S
O987        C997   1.281       .  A
O988       Ni993   1.910       .  S
O988        C998   1.280       .  A
O989       Ni994   1.925       .  S
O989        C998   1.283       .  A
O990       Ni994   1.927       .  S
O990        C997   1.283       .  A
O991       Ni994   1.907       .  S
O991        C996   1.279       .  A
O992       Ni994   1.907       .  S
O992        C995   1.281       .  A
Ni993      Ni994   2.387       .  S
C995       C1539   1.481       .  S
C996       C1571   1.480       .  S
C997       C1781   1.483       .  S
C998       C1561   1.477       .  S
O999      Ni1007   1.925       .  S
O999       C1009   1.283       .  A
O1000     Ni1007   1.926       .  S
O1000      C1010   1.284       .  A
O1001     Ni1007   1.904       .  S
O1001      C1011   1.280       .  A
O1002     Ni1007   1.906       .  S
O1002      C1012   1.279       .  A
O1003     Ni1008   1.928       .  S
O1003      C1012   1.284       .  A
O1004     Ni1008   1.930       .  S
O1004      C1011   1.284       .  A
O1005     Ni1008   1.910       .  S
O1005      C1010   1.280       .  A
O1006     Ni1008   1.911       .  S
O1006      C1009   1.281       .  A
Ni1007    Ni1008   2.386       .  S
C1009      C1483   1.480       .  S
C1010      C1583   1.481       .  S
C1011      C1649   1.483       .  S
C1012      C1517   1.477       .  S
O1013     Ni1021   1.933       .  S
O1013      C1023   1.284       .  A
O1014     Ni1021   1.929       .  S
O1014      C1024   1.284       .  A
O1015     Ni1021   1.903       .  S
O1015      C1025   1.279       .  A
O1016     Ni1021   1.901       .  S
O1016      C1026   1.278       .  A
O1017     Ni1022   1.935       .  S
O1017      C1954   1.285       .  A
O1018      C1025   1.284       .  A
O1019     Ni1022   1.906       .  S
O1019      C1952   1.279       .  A
O1020      C1023   1.280       .  A
Ni1022     O1946   1.932       .  S
Ni1022     O1948   1.904       .  S
Ni1022    Ni1949   2.386       .  S
C1023      C1451   1.482       .  S
C1024      C1473   1.481       .  S
C1025      C1715   1.483       .  S
C1026      C1549   1.483       .  S
O1027     Ni1035   1.926       .  S
O1027      C1037   1.283       .  A
O1028     Ni1035   1.923       .  S
O1028      C1038   1.283       .  A
O1029     Ni1035   1.901       .  S
O1029      C1039   1.279       .  A
O1030     Ni1035   1.905       .  S
O1030      C1040   1.279       .  A
O1031     Ni1036   1.930       .  S
O1031      C1040   1.285       .  A
O1032     Ni1036   1.936       .  S
O1032      C1039   1.285       .  A
O1033     Ni1036   1.911       .  S
O1033      C1038   1.280       .  A
O1034     Ni1036   1.908       .  S
O1034      C1037   1.280       .  A
Ni1035    Ni1036   2.386       .  S
C1037      C1429   1.480       .  S
C1038      C1461   1.481       .  S
C1039      C1605   1.486       .  S
C1040      C1505   1.483       .  S
O1042     Ni1049   1.934       .  S
O1042      C1052   1.285       .  A
O1043     Ni1049   1.905       .  S
O1043      C1053   1.279       .  A
O1044     Ni1049   1.901       .  S
O1044      C1054   1.279       .  A
O1045     Ni1050   1.935       .  S
O1045      C1054   1.284       .  A
O1046     Ni1050   1.930       .  S
O1046      C1053   1.284       .  A
O1047     Ni1050   1.905       .  S
O1047      C1052   1.279       .  A
O1048     Ni1050   1.907       .  S
O1048      C1051   1.280       .  A
Ni1049     O1969   1.930       .  S
Ni1049    Ni1050   2.387       .  S
C1051      O1969   1.284       .  A
C1051      C1351   1.481       .  S
C1052      C1407   1.482       .  S
C1053      C1373   1.477       .  S
C1054      C1527   1.479       .  S
O1055     Ni1063   1.925       .  S
O1055      C1065   1.282       .  A
O1056     Ni1063   1.930       .  S
O1056      C1066   1.285       .  A
O1057     Ni1063   1.907       .  S
O1057      C1067   1.279       .  A
O1058     Ni1063   1.909       .  S
O1058      C1068   1.280       .  A
O1059     Ni1064   1.927       .  S
O1059      C1068   1.283       .  A
O1060     Ni1064   1.929       .  S
O1060      C1067   1.284       .  A
O1061     Ni1064   1.907       .  S
O1061      C1066   1.279       .  A
O1062     Ni1064   1.910       .  S
O1062      C1065   1.281       .  A
Ni1063    Ni1064   2.388       .  S
C1065      C1319   1.480       .  S
C1066      C1395   1.482       .  S
C1067      C1329   1.477       .  S
C1068      C1439   1.477       .  S
O1069     Ni1077   1.927       .  S
O1069      C1079   1.283       .  A
O1070     Ni1077   1.925       .  S
O1070      C1080   1.284       .  A
O1071     Ni1077   1.913       .  S
O1071      C1081   1.281       .  A
O1072     Ni1077   1.908       .  S
O1072      C1082   1.281       .  A
O1073     Ni1078   1.926       .  S
O1074     Ni1078   1.921       .  S
O1075     Ni1078   1.908       .  S
O1076     Ni2006   1.904       .  S
O1076      C1079   1.280       .  A
Ni1077    Ni2006   2.387       .  S
C1079      C1263   1.478       .  S
C1080      O2003   1.279       .  A
C1080      C2213   1.479       .  S
C1081      O2002   1.283       .  A
C1081      C1385   1.482       .  S
C1082      O2001   1.283       .  A
C1082      C1495   1.483       .  S
O1083     Ni1091   1.928       .  S
O1083      C1093   1.283       .  A
O1084     Ni1091   1.926       .  S
O1084      C1094   1.284       .  A
O1085     Ni1091   1.906       .  S
O1085      C1095   1.279       .  A
O1086     Ni1091   1.908       .  S
O1086      C1096   1.281       .  A
O1087     Ni1092   1.925       .  S
O1087      C1096   1.283       .  A
O1088     Ni1092   1.928       .  S
O1088      C1095   1.284       .  A
O1089     Ni1092   1.907       .  S
O1089      C1094   1.280       .  A
O1090     Ni1092   1.904       .  S
O1090      C1093   1.280       .  A
Ni1091    Ni1092   2.387       .  S
C1093      C1253   1.480       .  S
C1094      C1297   1.479       .  S
C1095      C1341   1.482       .  S
C1096      C1417   1.482       .  S
O1097     Ni1105   1.930       .  S
O1097      C1107   1.283       .  A
O1098     Ni1105   1.932       .  S
O1098      C1108   1.285       .  A
O1099     Ni1105   1.904       .  S
O1099      C1109   1.280       .  A
O1100     Ni1105   1.909       .  S
O1100      C1110   1.279       .  A
O1101     Ni1106   1.927       .  S
O1101      C1110   1.284       .  A
O1102     Ni1106   1.932       .  S
O1102      C1109   1.284       .  A
O1103     Ni1106   1.905       .  S
O1103      C1108   1.279       .  A
O1104     Ni1106   1.906       .  S
O1104      C1107   1.280       .  A
Ni1105    Ni1106   2.387       .  S
C1107      C1803   1.481       .  S
C1108      C1231   1.481       .  S
C1109      C1363   1.484       .  S
C1110      C1197   1.477       .  S
O1111     Ni1119   1.926       .  S
O1111      C1121   1.283       .  A
O1112     Ni1119   1.923       .  S
O1112      C1122   1.283       .  A
O1113     Ni1119   1.902       .  S
O1113      C1123   1.280       .  A
O1114     Ni1119   1.902       .  S
O1114      C1124   1.279       .  A
O1115     Ni1120   1.929       .  S
O1115      C1124   1.285       .  A
O1116     Ni1120   1.930       .  S
O1116      C1123   1.284       .  A
O1117     Ni1120   1.914       .  S
O1117      C1122   1.280       .  A
O1118     Ni1120   1.912       .  S
O1118      C1121   1.281       .  A
Ni1119    Ni1120   2.386       .  S
C1121      C1671   1.482       .  S
C1122      C1219   1.481       .  S
C1123      C1275   1.482       .  S
C1124      C1187   1.481       .  S
O1125     Ni1133   1.928       .  S
O1125      C1135   1.283       .  A
O1126     Ni1133   1.928       .  S
O1126      C1136   1.284       .  A
O1127     Ni1133   1.902       .  S
O1127      C1137   1.279       .  A
O1128     Ni1133   1.903       .  S
O1128      C1138   1.279       .  A
O1129     Ni1134   1.931       .  S
O1129      C2066   1.285       .  A
O1130     Ni1134   1.932       .  S
O1130      C2065   1.284       .  A
O1131     Ni1134   1.904       .  S
O1131      C2064   1.279       .  A
O1132      C1135   1.280       .  A
Ni1134     O2060   1.904       .  S
Ni1134    Ni2061   2.387       .  S
C1135      C1737   1.479       .  S
C1137      C1307   1.477       .  S
C1138      C1209   1.483       .  S
O1139     Ni1147   1.925       .  S
O1139      C1149   1.283       .  A
O1140     Ni1147   1.929       .  S
O1140      C1150   1.285       .  A
O1141     Ni1147   1.906       .  S
O1141      C1151   1.280       .  A
O1142     Ni1147   1.907       .  S
O1142      C1152   1.279       .  A
O1143     Ni1148   1.926       .  S
O1143      C1152   1.284       .  A
O1144     Ni1148   1.927       .  S
O1144      C1151   1.283       .  A
O1145     Ni1148   1.901       .  S
O1145      C1150   1.278       .  A
O1146     Ni1148   1.904       .  S
O1146      C1149   1.280       .  A
Ni1147    Ni1148   2.388       .  S
C1149      C1615   1.476       .  S
C1150      C1165   1.479       .  S
C1151      C1241   1.477       .  S
C1152      C1175   1.477       .  S
C1153      C2064   1.479       .  S
C1153      C1154   1.402       .  A
C1153      C2086   1.400       .  A
C1154      C1155   1.394       .  A
C1154      H1167   1.083       .  S
C1155      C1156   1.413       .  A
C1155      H1168   1.077       .  S
C1156      C1162   1.429       .  A
C1156      C2085   1.424       .  A
C1157      C1159   1.398       .  A
C1157      C1158   1.406       .  A
C1158      H1169   1.085       .  S
C1159      C1160   1.389       .  A
C1159      H1170   1.084       .  S
C1160      H1171   1.084       .  S
C1161      C2088   1.399       .  A
C1161      C1162   1.420       .  A
C1161      C1166   1.402       .  A
C1162      C1163   1.417       .  A
C1163      C1164   1.398       .  A
C1163      H1172   1.077       .  S
C1164      C1165   1.399       .  A
C1164      H1173   1.083       .  S
C1165      C1166   1.403       .  A
C1166      H1174   1.085       .  S
C1175      C1176   1.398       .  A
C1175      C1180   1.403       .  A
C1176      C1177   1.397       .  A
C1176      H1189   1.084       .  S
C1177      C1178   1.416       .  A
C1177      H1190   1.076       .  S
C1178      C1184   1.429       .  A
C1178      C1179   1.421       .  A
C1179      C1181   1.400       .  A
C1179      C1180   1.403       .  A
C1180      H1191   1.085       .  S
C1181      C1182   1.390       .  A
C1181      H1192   1.083       .  S
C1182      C1183   1.399       .  A
C1182      H1193   1.084       .  S
C1183      C1184   1.424       .  A
C1183      C1188   1.407       .  A
C1184      C1185   1.412       .  A
C1185      C1186   1.393       .  A
C1185      H1194   1.076       .  S
C1186      C1187   1.403       .  A
C1186      H1195   1.083       .  S
C1187      C1188   1.402       .  A
C1188      H1196   1.084       .  S
C1197      C1198   1.398       .  A
C1197      C1202   1.402       .  A
C1198      C1199   1.397       .  A
C1198      H1211   1.084       .  S
C1199      C1200   1.417       .  A
C1199      H1212   1.076       .  S
C1200      C1206   1.430       .  A
C1200      C1201   1.421       .  A
C1201      C1203   1.400       .  A
C1201      C1202   1.404       .  A
C1202      H1213   1.085       .  S
C1203      C1204   1.390       .  A
C1204      C1205   1.399       .  A
C1205      C1206   1.424       .  A
C1205      C1210   1.408       .  A
C1206      C1207   1.412       .  A
C1207      C1208   1.393       .  A
C1207      H1216   1.077       .  S
C1208      C1209   1.403       .  A
C1208      H1217   1.083       .  S
C1209      C1210   1.402       .  A
C1210      H1218   1.084       .  S
H1214      C2131   1.083       .  S
H1215      C2132   1.084       .  S
C1219      C1220   1.399       .  A
C1219      C1224   1.404       .  A
C1220      C1221   1.396       .  A
C1220      H1233   1.083       .  S
C1221      C1222   1.415       .  A
C1221      H1234   1.077       .  S
C1222      C1228   1.430       .  A
C1222      C1223   1.421       .  A
C1223      C1225   1.400       .  A
C1223      C1224   1.406       .  A
C1224      H1235   1.085       .  S
C1225      C1226   1.391       .  A
C1225      H1236   1.083       .  S
C1226      C1227   1.399       .  A
C1226      H1237   1.084       .  S
C1227      C1228   1.424       .  A
C1227      C1232   1.408       .  A
C1228      C1229   1.413       .  A
C1229      C1230   1.394       .  A
C1229      H1238   1.077       .  S
C1230      C1231   1.402       .  A
C1230      H1239   1.084       .  S
C1231      C1232   1.402       .  A
C1232      H1240   1.085       .  S
C1241      C1242   1.399       .  A
C1241      C1246   1.403       .  A
C1242      C1243   1.390       .  A
C1242      H1255   1.084       .  S
C1243      C1244   1.413   1_565  A
C1243      H1256   1.076   1_565  S
C1244      C1250   1.427       .  A
C1244      C1245   1.423       .  A
C1245      C1247   1.401       .  A
C1245      C1246   1.409   1_545  A
C1246      H1257   1.084       .  S
C1247      C1248   1.393       .  A
C1247      H1258   1.083       .  S
C1248      C1249   1.401       .  A
C1248      H1259   1.084       .  S
C1249      C1250   1.423       .  A
C1249      C1254   1.410       .  A
C1250      C1251   1.412       .  A
C1251      C1252   1.390       .  A
C1251      H1260   1.076       .  S
C1252      C1253   1.400       .  A
C1252      H1261   1.084       .  S
C1253      C1254   1.404       .  A
C1254      H1262   1.084       .  S
C1263      C1264   1.401       .  A
C1263      C1268   1.400       .  A
C1264      C1265   1.402       .  A
C1264      H1277   1.083       .  S
C1265      C1266   1.417       .  A
C1265      H1278   1.078       .  S
C1266      C1272   1.432       .  A
C1266      C1267   1.423       .  A
C1267      C1269   1.397       .  A
C1267      C1268   1.398       .  A
C1268      H1279   1.085       .  S
C1269      C1270   1.384       .  A
C1269      H2208   1.084       .  S
C1270      C1271   1.397       .  A
C1270      H1281   1.084       .  S
C1271      C1272   1.422       .  A
C1271      C1276   1.398       .  A
C1272      C1273   1.417       .  A
C1273      C1274   1.403       .  A
C1273      H1282   1.077       .  S
C1274      C1275   1.402       .  A
C1274      H1283   1.083       .  S
C1275      C1276   1.401       .  A
C1276      H1284   1.085       .  S
C1285      C1286   1.402       .  A
C1286      C1287   1.395       .  A
C1286      H1299   1.083       .  S
C1287      C1288   1.414       .  A
C1287      H1300   1.077       .  S
C1288      C1294   1.430       .  A
C1288      C1289   1.424       .  A
C1290      C2213   1.400       .  A
C1290      C2217   1.405       .  A
C1290      H1301   1.085       .  S
C1291      C2217   1.398       .  A
C1291      C2220   1.389       .  A
C1291      H1302   1.084       .  S
C1292      C1293   1.399       .  A
C1293      C1294   1.421       .  A
C1293      C1298   1.403       .  A
C1294      C1295   1.416       .  A
C1295      C1296   1.398       .  A
C1295      H1304   1.077       .  S
C1296      C1297   1.399       .  A
C1296      H1305   1.083       .  S
C1297      C1298   1.403       .  A
C1298      H1306   1.085       .  S
H1303      C2220   1.084       .  S
C1307      C1308   1.400       .  A
C1307      C1312   1.399       .  A
C1308      C1309   1.403   1_565  A
C1309      C1310   1.418       .  A
C1309      H1322   1.077       .  S
C1310      C1316   1.432       .  A
C1310      C1311   1.422   1_545  A
C1311      C1313   1.397   1_565  A
C1311      C1312   1.398       .  A
C1312      H1323   1.085       .  S
C1313      C1314   1.384       .  A
C1313      H1324   1.084   1_545  S
C1314      C1315   1.397       .  A
C1314      H1325   1.084       .  S
C1315      C1316   1.423       .  A
C1315      C1320   1.399       .  A
C1316      C1317   1.417       .  A
C1317      C1318   1.402       .  A
C1317      H1326   1.078       .  S
C1318      C1319   1.402       .  A
C1318      H1327   1.083       .  S
C1319      C1320   1.400       .  A
C1320      H1328   1.085       .  S
H1321      C2236   1.083       .  S
C1329      C1330   1.401       .  A
C1329      C1334   1.399       .  A
C1330      C1331   1.395       .  A
C1330      H1343   1.084       .  S
C1331      C1332   1.413       .  A
C1331      H1344   1.077       .  S
C1332      C1338   1.431       .  A
C1332      C1333   1.425       .  A
C1333      C1335   1.398       .  A
C1333      C1334   1.406       .  A
C1334      H1345   1.085       .  S
C1335      C1336   1.389       .  A
C1335      H1346   1.083       .  S
C1336      C1337   1.399       .  A
C1336      H1347   1.084       .  S
C1337      C1338   1.421       .  A
C1337      C1342   1.402       .  A
C1338      C1339   1.417       .  A
C1339      C1340   1.399       .  A
C1339      H1348   1.077       .  S
C1340      C1341   1.400       .  A
C1340      H1349   1.083       .  S
C1341      C1342   1.403       .  A
C1342      H1350   1.084       .  S
C1351      C1352   1.400       .  A
C1351      C2284   1.404       .  A
C1352      C1353   1.391       .  A
C1352      H1365   1.084       .  S
C1353      C2282   1.413       .  A
C1353      H1366   1.076       .  S
C1354      C1360   1.429       .  A
C1354      C1355   1.423       .  A
C1355      C1357   1.401       .  A
C1355      C1356   1.411       .  A
C1356      H1367   1.084       .  S
C1357      C1358   1.394       .  A
C1357      H1368   1.084       .  S
C1358      C1359   1.401       .  A
C1358      H1369   1.084       .  S
C1359      C1360   1.423       .  A
C1359      C1364   1.411       .  A
C1361      C2288   1.412       .  A
C1361      C1362   1.390       .  A
C1361      H1370   1.076       .  S
C1362      C2291   1.402       .  A
C1362      H1371   1.083       .  S
C1363      C1364   1.405       .  A
C1364      H1372   1.084       .  S
C1373      C1374   1.401       .  A
C1373      C1378   1.401       .  A
C1374      C2303   1.393       .  A
C1374      H2315   1.084       .  S
C1375      H1388   1.076       .  S
C1376      C2303   1.413       .  A
C1376      C1382   1.429       .  A
C1376      C1377   1.424       .  A
C1377      C1379   1.399       .  A
C1377      C1378   1.408       .  A
C1378      H1389   1.085       .  S
C1379      C1380   1.391       .  A
C1379      H1390   1.084       .  S
C1380      C1381   1.400       .  A
C1380      H1391   1.084       .  S
C1381      C1382   1.421       .  A
C1381      C1386   1.405       .  A
C1382      C2311   1.415       .  A
C1383      C1384   1.396       .  A
C1383      H1392   1.076       .  S
C1384      H1393   1.083       .  S
C1385      C2312   1.400       .  A
C1385      C1386   1.404       .  A
C1386      H1394   1.084       .  S
C1395      C1396   1.403       .  A
C1395      C1400   1.400       .  A
C1396      C1397   1.397       .  A
C1396      H1409   1.083       .  S
C1397      C1398   1.414       .  A
C1397      H1410   1.078       .  S
C1398      C1404   1.432       .  A
C1398      C1399   1.424       .  A
C1399      C1401   1.398       .  A
C1399      C1400   1.406       .  A
C1400      H1411   1.085       .  S
C1401      C1402   1.389       .  A
C1401      H1412   1.084       .  S
C1402      C1403   1.399       .  A
C1402      H1413   1.084       .  S
C1403      C1404   1.421       .  A
C1403      C1408   1.403       .  A
C1404      C1405   1.417       .  A
C1405      C1406   1.401       .  A
C1405      H1414   1.077       .  S
C1406      C1407   1.399       .  A
C1406      H1415   1.083       .  S
C1407      C1408   1.403       .  A
C1408      H1416   1.085       .  S
C1417      C1418   1.402       .  A
C1417      C1422   1.401       .  A
C1418      C1419   1.401   1_655  A
C1418      H1431   1.083       .  S
C1419      C1420   1.416       .  A
C1419      H1432   1.077       .  S
C1420      C1426   1.432       .  A
C1420      C1421   1.422   1_455  A
C1421      C1423   1.398   1_655  A
C1421      C1422   1.400       .  A
C1422      H1433   1.085       .  S
C1423      C1424   1.386       .  A
C1423      H1434   1.084   1_455  S
C1424      C1425   1.398       .  A
C1424      H1435   1.084       .  S
C1425      C1426   1.422       .  A
C1425      C1430   1.400       .  A
C1426      C1427   1.417       .  A
C1427      C1428   1.401       .  A
C1427      H1436   1.077       .  S
C1428      C1429   1.401       .  A
C1428      H1437   1.083       .  S
C1429      C1430   1.401       .  A
C1430      H1438   1.085       .  S
C1439      C1440   1.399       .  A
C1439      C1444   1.403       .  A
C1440      C1441   1.391       .  A
C1440      H1453   1.084       .  S
C1441      C1442   1.414       .  A
C1441      H1454   1.076       .  S
C1442      C1448   1.429       .  A
C1442      C1443   1.423       .  A
C1443      C1445   1.401       .  A
C1443      C1444   1.410       .  A
C1444      H1455   1.084       .  S
C1445      C1446   1.394       .  A
C1445      H1456   1.083       .  S
C1446      C1447   1.401       .  A
C1446      H1457   1.084       .  S
C1447      C1448   1.423       .  A
C1447      C1452   1.411       .  A
C1448      C1449   1.412       .  A
C1449      C1450   1.391       .  A
C1449      H1458   1.076       .  S
C1450      C1451   1.401       .  A
C1450      H1459   1.084       .  S
C1451      C1452   1.404       .  A
C1452      H1460   1.084       .  S
C1461      C1462   1.402       .  A
C1461      C1466   1.401       .  A
C1462      C1463   1.397       .  A
C1462      H1475   1.083       .  S
C1463      C1464   1.414       .  A
C1463      H2404   1.078       .  S
C1464      C1470   1.431       .  A
C1464      C1465   1.424       .  A
C1465      C1467   1.398       .  A
C1465      C1466   1.405       .  A
C1466      H1477   1.085       .  S
C1467      C1468   1.388       .  A
C1467      H1478   1.084       .  S
C1468      C1469   1.399       .  A
C1468      H1479   1.084       .  S
C1469      C1470   1.421       .  A
C1469      C1474   1.403       .  A
C1470      C2399   1.416       .  A
C1471      C1472   1.399       .  A
C1471      H1480   1.077       .  S
C1472      C1473   1.399       .  A
C1472      H1481   1.083       .  S
C1474      C2401   1.403       .  A
C1474      H1482   1.085       .  S
C1483      C1484   1.401       .  A
C1483      C1488   1.401       .  A
C1484      C1485   1.400       .  A
C1484      H1497   1.083       .  S
C1485      C1486   1.417       .  A
C1485      H1498   1.077       .  S
C1486      C1492   1.432       .  A
C1486      C1487   1.423       .  A
C1487      C1489   1.398       .  A
C1487      C1488   1.401       .  A
C1488      H1499   1.085       .  S
C1489      C1490   1.386       .  A
C1489      H1500   1.084       .  S
C1490      C1491   1.398   1_455  A
C1490      H1501   1.084   1_455  S
C1491      C1492   1.422   1_655  A
C1491      C1496   1.401       .  A
C1492      C1493   1.416   1_455  A
C1493      C1494   1.401       .  A
C1493      H2430   1.077   1_655  S
C1494      C1495   1.402       .  A
C1494      H2431   1.083       .  S
C1495      C1496   1.402       .  A
C1496      H1504   1.085       .  S
C1505      C1506   1.403       .  A
C1505      C1510   1.402       .  A
C1506      C1507   1.394       .  A
C1506      H1519   1.083       .  S
C1507      C1508   1.412       .  A
C1507      H1520   1.077       .  S
C1508      C1514   1.430       .  A
C1508      C1509   1.424       .  A
C1509      C1511   1.399       .  A
C1509      C1510   1.407       .  A
C1510      H1521   1.084       .  S
C1511      C1512   1.390       .  A
C1511      H1522   1.084       .  S
C1512      C1513   1.400       .  A
C1512      H1523   1.084       .  S
C1513      C1514   1.421       .  A
C1513      C1518   1.403       .  A
C1514      C1515   1.417       .  A
C1515      C1516   1.398       .  A
C1515      H1524   1.077       .  S
C1516      C1517   1.399       .  A
C1516      H1525   1.084       .  S
C1517      C1518   1.402       .  A
C1518      H1526   1.085       .  S
C1527      C2456   1.400       .  A
C1527      C1532   1.403       .  A
C1528      C1529   1.389       .  A
C1528      H1541   1.084       .  S
C1529      H1542   1.076       .  S
C1530      C2457   1.412       .  A
C1530      C2464   1.428       .  A
C1530      C1531   1.424       .  A
C1531      C1533   1.401       .  A
C1531      C1532   1.412       .  A
C1532      H1543   1.084       .  S
C1533      C1534   1.394       .  A
C1533      H1544   1.084       .  S
C1534      C1535   1.401       .  A
C1534      H1545   1.083       .  S
C1535      C2464   1.422       .  A
C1535      C1540   1.411       .  A
C1536      C1537   1.413       .  A
C1537      C1538   1.390       .  A
C1537      H1546   1.076       .  S
C1538      C1539   1.400       .  A
C1538      H1547   1.084       .  S
C1540      C2467   1.405       .  A
C1540      H1548   1.084       .  S
C1549      C1550   1.403       .  A
C1549      C1554   1.402       .  A
C1550      C1551   1.392       .  A
C1550      H1563   1.083       .  S
C1551      C1552   1.412       .  A
C1551      H1564   1.077       .  S
C1552      C1558   1.430       .  A
C1552      C1553   1.424       .  A
C1553      C1555   1.400       .  A
C1553      C1554   1.409       .  A
C1554      H1565   1.084       .  S
C1555      C1556   1.391       .  A
C1555      H1566   1.084       .  S
C1556      C1557   1.400       .  A
C1556      H1567   1.083       .  S
C1557      C1558   1.421       .  A
C1557      C1562   1.405       .  A
C1558      C1559   1.417       .  A
C1559      C1560   1.396       .  A
C1559      H1568   1.076       .  S
C1560      C1561   1.398       .  A
C1560      H1569   1.084       .  S
C1561      C1562   1.403       .  A
C1562      H1570   1.085       .  S
C1571      C1572   1.402       .  A
C1571      C1576   1.401       .  A
C1572      C1573   1.395       .  A
C1572      H1585   1.083       .  S
C1573      C1574   1.414       .  A
C1573      H1586   1.077       .  S
C1574      C1580   1.430       .  A
C1574      C1575   1.424       .  A
C1575      C1577   1.399       .  A
C1575      C1576   1.406       .  A
C1576      H1587   1.085       .  S
C1577      C1578   1.389       .  A
C1577      H1588   1.084       .  S
C1578      C1579   1.399       .  A
C1578      H1589   1.084       .  S
C1579      C1580   1.421       .  A
C1579      C1584   1.404       .  A
C1580      C1581   1.416       .  A
C1581      C1582   1.398       .  A
C1581      H1590   1.077       .  S
C1582      C1583   1.400       .  A
C1582      H1591   1.083       .  S
C1583      C1584   1.403       .  A
C1584      H1592   1.085       .  S
C1593      C1594   1.402       .  A
C1593      C1598   1.400       .  A
C1594      C1595   1.404       .  A
C1594      H1607   1.083       .  S
C1595      C1596   1.418   1_565  A
C1595      H1608   1.078       .  S
C1596      C1602   1.434       .  A
C1596      C1597   1.423   1_545  A
C1597      C1599   1.397   1_565  A
C1597      C1598   1.399       .  A
C1598      H1609   1.085       .  S
C1599      C1600   1.384       .  A
C1599      H1610   1.084       .  S
C1600      C1601   1.397       .  A
C1600      H1611   1.084       .  S
C1601      C1602   1.422       .  A
C1601      C1606   1.398       .  A
C1602      C1603   1.418       .  A
C1603      C1604   1.405       .  A
C1603      H1612   1.078       .  S
C1604      C1605   1.403       .  A
C1604      H1613   1.083       .  S
C1605      C1606   1.402       .  A
C1606      H1614   1.085       .  S
C1615      C1616   1.399       .  A
C1615      C1620   1.403       .  A
C1616      C1617   1.389       .  A
C1616      H1629   1.084       .  S
C1617      C1618   1.413   1_655  A
C1617      H1630   1.076   1_655  S
C1618      C1624   1.426       .  A
C1618      C1619   1.422   1_455  A
C1619      C1621   1.400   1_655  A
C1619      C1620   1.408       .  A
C1620      H1631   1.084       .  S
C1621      C1622   1.393       .  A
C1621      H1632   1.084   1_455  S
C1622      C1623   1.401       .  A
C1622      H1633   1.084       .  S
C1623      C1624   1.422       .  A
C1623      C1628   1.408       .  A
C1624      C1625   1.412       .  A
C1625      C1626   1.388       .  A
C1625      H1634   1.076       .  S
C1626      C1627   1.401       .  A
C1626      H1635   1.083       .  S
C1627      C1628   1.404       .  A
C1628      H1636   1.084       .  S
C1637      C1638   1.400       .  A
C1637      C1642   1.404       .  A
C1638      C1639   1.390       .  A
C1638      H1651   1.084       .  S
C1639      C1640   1.412       .  A
C1639      H1652   1.076       .  S
C1640      C1646   1.428       .  A
C1640      C1641   1.422       .  A
C1641      C1643   1.401       .  A
C1641      C1642   1.410       .  A
C1642      H1653   1.084       .  S
C1643      C1644   1.394       .  A
C1643      H1654   1.083       .  S
C1644      C1645   1.401       .  A
C1644      H1655   1.084       .  S
C1645      C1646   1.423       .  A
C1645      C1650   1.411       .  A
C1646      C1647   1.412       .  A
C1647      C1648   1.389       .  A
C1647      H1656   1.076       .  S
C1648      C1649   1.401       .  A
C1648      H1657   1.083       .  S
C1649      C1650   1.405       .  A
C1650      H1658   1.084       .  S
C1659      C1660   1.402       .  A
C1659      C1664   1.402       .  A
C1660      C1661   1.402       .  A
C1660      H2601   1.083       .  S
C1661      C1662   1.416       .  A
C1661      H2602   1.077       .  S
C1662      C1668   1.433       .  A
C1662      C1663   1.422       .  A
C1663      C1665   1.398       .  A
C1663      C1664   1.401       .  A
C1664      H1675   1.085       .  S
C1665      C1666   1.386       .  A
C1665      H1676   1.084       .  S
C1666      C1667   1.398   1_455  A
C1666      H1677   1.084       .  S
C1667      C1668   1.423   1_655  A
C1667      C1672   1.402       .  A
C1668      C1669   1.417   1_455  A
C1669      C1670   1.401       .  A
C1669      H1678   1.077       .  S
C1670      C1671   1.402       .  A
C1670      H1679   1.083       .  S
C1671      C1672   1.401       .  A
C1672      H1680   1.085       .  S
C1681      C1682   1.399       .  A
C1681      C1686   1.403       .  A
C1682      C1683   1.399       .  A
C1682      H1695   1.083       .  S
C1683      C1684   1.417       .  A
C1683      H1696   1.077       .  S
C1684      C1690   1.431       .  A
C1684      C1685   1.421       .  A
C1685      C1687   1.400       .  A
C1685      C1686   1.403       .  A
C1686      H1697   1.085       .  S
C1687      C1688   1.389       .  A
C1687      H1698   1.084       .  S
C1688      C1689   1.398       .  A
C1688      H1699   1.084       .  S
C1689      C1690   1.424       .  A
C1689      C1694   1.407       .  A
C1690      C1691   1.413       .  A
C1691      C1692   1.395       .  A
C1691      H1700   1.077       .  S
C1692      C1693   1.403       .  A
C1692      H1701   1.083       .  S
C1693      C1694   1.401       .  A
C1694      H1702   1.085       .  S
C1703      C1704   1.400       .  A
C1703      C1708   1.403       .  A
C1704      C1705   1.391       .  A
C1704      H1717   1.084       .  S
C1705      C1706   1.413   1_565  A
C1705      H1718   1.076   1_565  S
C1706      C1712   1.429       .  A
C1706      C1707   1.422   1_545  A
C1707      C1709   1.401   1_565  A
C1707      C1708   1.410       .  A
C1708      H1719   1.084       .  S
C1709      C1710   1.393       .  A
C1709      H1720   1.083   1_545  S
C1710      C1711   1.401       .  A
C1710      H1721   1.084       .  S
C1711      C1712   1.423       .  A
C1711      C1716   1.411       .  A
C1712      C1713   1.412       .  A
C1713      C1714   1.390       .  A
C1713      H1722   1.076       .  S
C1714      C1715   1.402       .  A
C1714      H1723   1.083       .  S
C1715      C1716   1.404       .  A
C1716      H1724   1.084       .  S
C1725      C1726   1.399       .  A
C1725      C1730   1.403       .  A
C1726      C1727   1.390       .  A
C1726      H1739   1.084       .  S
C1727      C1728   1.413       .  A
C1727      H1740   1.076       .  S
C1728      C1734   1.428       .  A
C1728      C1729   1.423       .  A
C1729      C1731   1.401       .  A
C1729      C1730   1.409       .  A
C1730      H1741   1.084       .  S
C1731      C1732   1.393       .  A
C1731      H1742   1.084       .  S
C1732      C1733   1.400       .  A
C1732      H1743   1.083       .  S
C1733      C1734   1.423       .  A
C1733      C1738   1.409       .  A
C1734      C1735   1.412       .  A
C1735      C1736   1.390       .  A
C1735      H1744   1.076       .  S
C1736      C1737   1.400       .  A
C1737      C1738   1.403       .  A
C1738      H1746   1.084       .  S
H1745      C2664   1.084       .  S
C1747      C1748   1.402       .  A
C1747      C1752   1.401       .  A
C1748      C1749   1.394       .  A
C1748      H1761   1.083       .  S
C1749      C1750   1.413       .  A
C1749      H1762   1.077       .  S
C1750      C1756   1.429       .  A
C1750      C1751   1.424       .  A
C1751      C1753   1.399       .  A
C1751      C1752   1.405       .  A
C1752      H1763   1.084       .  S
C1753      C1754   1.389       .  A
C1753      H1764   1.084       .  S
C1754      C1755   1.399       .  A
C1754      H1765   1.084       .  S
C1755      C1756   1.421       .  A
C1755      C1760   1.402       .  A
C1756      C1757   1.417       .  A
C1757      C1758   1.397       .  A
C1757      H1766   1.077       .  S
C1758      C1759   1.399       .  A
C1758      H1767   1.084       .  S
C1759      C1760   1.402       .  A
C1760      H1768   1.085       .  S
C1769      C1770   1.401       .  A
C1769      C1774   1.400       .  A
C1770      C2699   1.402       .  A
C1770      H1783   1.083       .  S
C1771      C1772   1.417       .  A
C1771      H1784   1.078       .  S
C1772      C1778   1.432       .  A
C1772      C1773   1.422       .  A
C1773      C1775   1.398       .  A
C1774      C2701   1.399       .  A
C1774      H1785   1.085       .  S
C1775      C1776   1.385       .  A
C1776      C1777   1.398       .  A
C1776      H1787   1.084       .  S
C1777      C1778   1.422       .  A
C1777      C1782   1.400       .  A
C1778      C1779   1.416       .  A
C1779      C1780   1.401       .  A
C1779      H1788   1.077       .  S
C1780      C1781   1.402       .  A
C1780      H1789   1.083       .  S
C1781      C1782   1.401       .  A
C1782      H1790   1.085       .  S
H1786      C2703   1.084       .  S
C1791      C1792   1.402       .  A
C1791      C2724   1.402       .  A
C1792      C1793   1.404       .  A
C1792      H1805   1.083       .  S
C1793      C1794   1.418       .  A
C1793      H1806   1.078       .  S
C1794      C1800   1.433       .  A
C1794      C2723   1.422       .  A
C1795      C1797   1.398       .  A
C1795      C1796   1.399       .  A
C1796      H1807   1.085       .  S
C1797      C1798   1.384       .  A
C1797      H1808   1.084       .  S
C1798      C1799   1.398       .  A
C1798      H1809   1.084       .  S
C1799      C1804   1.399       .  A
C1800      C2727   1.423       .  A
C1800      C1801   1.417       .  A
C1801      C1802   1.403       .  A
C1801      H1810   1.078       .  S
C1802      C2731   1.402       .  A
C1802      H1811   1.083       .  S
C1803      C1804   1.400       .  A
C1804      H1812   1.085       .  S
C1813      C1814   1.403       .  A
C1813      C1818   1.402       .  A
C1814      C1815   1.396       .  A
C1814      H2755   1.083       .  S
C1815      C1816   1.413       .  A
C1815      H2756   1.077       .  S
C1816      C1822   1.431       .  A
C1816      C1817   1.424       .  A
C1817      C1819   1.399       .  A
C1817      C1818   1.407       .  A
C1818      H1829   1.084       .  S
C1819      C1820   1.389       .  A
C1819      H1830   1.084       .  S
C1820      C1821   1.399       .  A
C1820      H1831   1.084       .  S
C1821      C1822   1.421       .  A
C1821      C1826   1.404       .  A
C1822      C2751   1.417       .  A
C1823      C1824   1.399       .  A
C1823      H1832   1.077       .  S
C1824      H1833   1.084       .  S
C1825      C2752   1.399       .  A
C1825      C1826   1.402       .  A
C1826      H1834   1.085       .  S
C1835      C1836   1.402       .  A
C1835      C1840   1.400       .  A
C1836      C1837   1.396       .  A
C1836      H1849   1.083       .  S
C1837      C1838   1.414       .  A
C1837      H1850   1.077       .  S
C1838      C1844   1.430       .  A
C1838      C1839   1.424       .  A
C1839      C1841   1.398       .  A
C1839      C1840   1.404       .  A
C1840      H1851   1.085       .  S
C1841      C1842   1.388       .  A
C1841      H1852   1.084       .  S
C1842      C1843   1.399       .  A
C1842      H1853   1.084       .  S
C1843      C1844   1.421       .  A
C1843      C1848   1.402       .  A
C1844      C1845   1.416       .  A
C1845      C1846   1.399       .  A
C1845      H1854   1.077       .  S
C1846      C1847   1.400       .  A
C1846      H1855   1.083       .  S
C1847      C1848   1.403       .  A
C1848      H1856   1.085       .  S
O1857     Ni1865   1.927       .  S
O1857      C1867   1.283   1_554  A
O1858     Ni1865   1.924   1_556  S
O1858      C1868   1.284       .  A
O1859     Ni1865   1.908       .  S
O1859      C1869   1.280   1_554  A
O1860     Ni1865   1.902       .  S
O1860      C1870   1.280   1_554  A
O1861     Ni1866   1.935       .  S
O1861      C1870   1.285       .  A
O1862     Ni1866   1.930       .  S
O1862      C1869   1.285       .  A
O1863     Ni1866   1.909       .  S
O1863      C1868   1.279       .  A
O1864     Ni1866   1.905       .  S
O1864      C1867   1.280       .  A
Ni1865    Ni1866   2.386   1_554  S
C1867      C2697   1.480   1_556  S
C1868      C2763   1.479       .  S
C1869      C2741   1.484       .  S
C1870      C2719   1.485       .  S
O1871     Ni1879   1.926       .  S
O1871      C1881   1.283       .  A
O1872     Ni1879   1.930       .  S
O1872      C1882   1.285       .  A
O1873     Ni1879   1.907       .  S
O1873      C1883   1.279       .  A
O1874     Ni1879   1.905       .  S
O1874      C1884   1.280       .  A
O1875     Ni1880   1.927       .  S
O1875      C1884   1.283       .  A
O1876     Ni1880   1.925       .  S
O1876      C1883   1.283       .  A
O1877     Ni1880   1.905       .  S
O1877      C1882   1.279       .  A
O1878     Ni1880   1.909       .  S
O1878      C1881   1.281       .  A
Ni1879    Ni1880   2.388       .  S
C1881      C2631   1.479       .  S
C1882      C2775   1.481       .  S
C1883      C2687   1.476       .  S
C1884      C2653   1.477       .  S
O1885     Ni1893   1.929       .  S
O1885      C1895   1.283       .  A
O1886     Ni1893   1.931       .  S
O1886      C1896   1.285       .  A
O1887     Ni1893   1.909       .  S
O1887      C1897   1.280       .  A
O1888     Ni1893   1.908       .  S
O1888      C1898   1.280       .  A
O1889     Ni1894   1.930       .  S
O1890     Ni1894   1.930       .  S
O1891     Ni1894   1.904       .  S
O1892      C1895   1.280   1_554  A
C1895      C2565   1.480       .  S
C1897      C2753   1.480       .  S
C1898      C2587   1.485       .  S
O1899     Ni1907   1.932       .  S
O1899      C1909   1.284       .  A
O1900     Ni1907   1.930       .  S
O1900      C1910   1.285       .  A
O1901     Ni1907   1.907       .  S
O1901      C1911   1.280       .  A
O1902     Ni1907   1.900       .  S
O1902      C1912   1.279       .  A
O1903     Ni1908   1.927       .  S
O1903      C1912   1.283       .  A
O1904     Ni1908   1.923       .  S
O1904      C1911   1.283       .  A
O1905     Ni1908   1.907       .  S
O1905      C1910   1.279       .  A
O1906     Ni1908   1.905       .  S
O1906      C1909   1.280       .  A
Ni1907    Ni1908   2.387       .  S
C1909      C2521   1.482       .  S
C1910      C2621   1.481       .  S
C1911      C2675   1.480       .  S
C1912      C2555   1.479       .  S
O1913     Ni1921   1.928       .  S
O1913      C1923   1.283       .  A
O1914     Ni1921   1.929       .  S
O1914      C1924   1.284       .  A
O1915     Ni1921   1.909       .  S
O1915      C1925   1.281       .  A
O1916     Ni1921   1.910       .  S
O1916      C1926   1.280       .  A
O1917     Ni1922   1.925       .  S
O1917      C1926   1.283       .  A
O1918     Ni1922   1.927       .  S
O1918      C1925   1.283       .  A
O1919     Ni1922   1.907       .  S
O1919      C1924   1.279       .  A
O1920     Ni1922   1.907       .  S
O1920      C1923   1.281       .  A
Ni1921    Ni1922   2.387       .  S
C1923      C2467   1.481       .  S
C1924      C2499   1.480       .  S
C1925      C2709   1.483       .  S
C1926      C2489   1.477       .  S
O1927     Ni1935   1.925       .  S
O1927      C1937   1.283       .  A
O1928     Ni1935   1.927       .  S
O1928      C1938   1.284       .  A
O1929     Ni1935   1.904       .  S
O1929      C1939   1.280       .  A
O1930     Ni1935   1.906       .  S
O1930      C1940   1.279       .  A
O1931     Ni1936   1.928       .  S
O1931      C1940   1.284       .  A
O1932     Ni1936   1.930       .  S
O1932      C1939   1.284       .  A
O1933     Ni1936   1.910       .  S
O1933      C1938   1.280       .  A
O1934     Ni1936   1.911       .  S
O1934      C1937   1.281       .  A
Ni1935    Ni1936   2.386       .  S
C1937      C2411   1.480       .  S
C1938      C2511   1.481       .  S
C1939      C2577   1.483       .  S
C1940      C2445   1.477       .  S
O1941     Ni1949   1.933       .  S
O1941      C1951   1.284       .  A
O1942     Ni1949   1.929       .  S
O1942      C1952   1.284       .  A
O1943     Ni1949   1.903       .  S
O1943      C1953   1.279       .  A
O1944     Ni1949   1.901       .  S
O1944      C1954   1.278       .  A
O1945     Ni1950   1.935       .  S
O1946      C1953   1.284       .  A
O1947     Ni1950   1.906   1_556  S
O1948      C1951   1.280       .  A
C1951      C2379   1.482       .  S
C1952      C2401   1.481       .  S
C1953      C2643   1.483       .  S
C1954      C2477   1.483       .  S
O1955     Ni1963   1.926       .  S
O1955      C1965   1.283       .  A
O1956     Ni1963   1.923       .  S
O1956      C1966   1.283       .  A
O1957     Ni1963   1.901       .  S
O1957      C1967   1.280       .  A
O1958     Ni1963   1.905       .  S
O1958      C1968   1.279       .  A
O1959     Ni1964   1.930       .  S
O1959      C1968   1.285       .  A
O1960     Ni1964   1.936       .  S
O1960      C1967   1.285       .  A
O1961     Ni1964   1.911       .  S
O1961      C1966   1.280       .  A
O1962     Ni1964   1.908       .  S
O1962      C1965   1.280       .  A
Ni1963    Ni1964   2.386       .  S
C1965      C2357   1.480       .  S
C1966      C2389   1.481       .  S
C1967      C2533   1.486       .  S
C1968      C2433   1.483       .  S
O1970     Ni1977   1.934   1_556  S
O1970      C1980   1.285       .  A
O1971     Ni1977   1.904       .  S
O1971      C1981   1.279   1_554  A
O1972     Ni1977   1.900       .  S
O1972      C1982   1.279   1_554  A
O1973     Ni1978   1.935       .  S
O1973      C1982   1.284       .  A
O1974     Ni1978   1.930       .  S
O1974      C1981   1.284       .  A
O1975     Ni1978   1.905       .  S
O1975      C1980   1.279       .  A
O1976     Ni1978   1.907       .  S
O1976      C1979   1.280       .  A
Ni1977    Ni1978   2.387   1_554  S
C1979      C2279   1.481       .  S
C1980      C2335   1.482       .  S
C1981      C2301   1.477       .  S
C1982      C2455   1.479       .  S
O1983     Ni1991   1.925       .  S
O1983      C1993   1.282       .  A
O1984     Ni1991   1.930       .  S
O1984      C1994   1.285       .  A
O1985     Ni1991   1.907       .  S
O1985      C1995   1.279       .  A
O1986     Ni1991   1.909       .  S
O1986      C1996   1.280       .  A
O1987     Ni1992   1.927       .  S
O1987      C1996   1.283       .  A
O1988     Ni1992   1.929       .  S
O1988      C1995   1.284       .  A
O1989     Ni1992   1.907       .  S
O1989      C1994   1.279       .  A
O1990     Ni1992   1.910       .  S
O1990      C1993   1.281       .  A
Ni1991    Ni1992   2.388       .  S
C1993      C2247   1.480       .  S
C1994      C2323   1.482       .  S
C1995      C2257   1.476       .  S
C1996      C2367   1.477       .  S
O1997     Ni2005   1.927       .  S
O1997      C2007   1.283       .  A
O1998     Ni2005   1.925       .  S
O1998      C2008   1.284       .  A
O1999     Ni2005   1.913       .  S
O1999      C2009   1.281       .  A
O2000     Ni2005   1.908       .  S
O2000      C2010   1.281       .  A
O2001     Ni2006   1.926       .  S
O2002     Ni2006   1.921       .  S
O2003     Ni2006   1.908       .  S
O2004      C2007   1.280       .  A
C2007      C2191   1.478       .  S
C2009      C2313   1.482       .  S
C2010      C2423   1.483       .  S
O2011     Ni2019   1.928       .  S
O2011      C2021   1.283       .  A
O2012     Ni2019   1.926       .  S
O2012      C2022   1.284       .  A
O2013     Ni2019   1.905       .  S
O2013      C2023   1.279       .  A
O2014     Ni2019   1.908       .  S
O2014      C2024   1.281       .  A
O2015     Ni2020   1.925       .  S
O2015      C2024   1.283       .  A
O2016     Ni2020   1.928       .  S
O2016      C2023   1.284       .  A
O2017     Ni2020   1.908       .  S
O2017      C2022   1.280       .  A
O2018     Ni2020   1.904       .  S
O2018      C2021   1.280       .  A
Ni2019    Ni2020   2.387       .  S
C2021      C2181   1.480       .  S
C2022      C2225   1.480       .  S
C2023      C2269   1.482       .  S
C2024      C2345   1.482       .  S
O2025     Ni2033   1.930       .  S
O2025      C2035   1.283       .  A
O2026     Ni2033   1.932       .  S
O2026      C2036   1.285       .  A
O2027     Ni2033   1.904       .  S
O2027      C2037   1.280       .  A
O2028     Ni2033   1.909       .  S
O2028      C2038   1.279       .  A
O2029     Ni2034   1.927       .  S
O2029      C2038   1.284       .  A
O2030     Ni2034   1.932       .  S
O2030      C2037   1.284       .  A
O2031     Ni2034   1.905       .  S
O2031      C2036   1.279       .  A
O2032     Ni2034   1.907       .  S
O2032      C2035   1.280       .  A
Ni2033    Ni2034   2.387       .  S
C2035      C2731   1.481       .  S
C2036      C2159   1.481       .  S
C2037      C2291   1.484       .  S
C2038      C2125   1.477       .  S
O2039     Ni2047   1.926       .  S
O2039      C2049   1.283       .  A
O2040     Ni2047   1.923       .  S
O2040      C2050   1.283       .  A
O2041     Ni2047   1.902       .  S
O2041      C2051   1.280       .  A
O2042     Ni2047   1.902       .  S
O2042      C2052   1.279       .  A
O2043     Ni2048   1.929       .  S
O2043      C2052   1.285       .  A
O2044     Ni2048   1.930       .  S
O2044      C2051   1.284       .  A
O2045     Ni2048   1.915       .  S
O2045      C2050   1.280       .  A
O2046     Ni2048   1.912       .  S
O2046      C2049   1.281       .  A
Ni2047    Ni2048   2.386       .  S
C2049      C2599   1.482       .  S
C2050      C2147   1.481       .  S
C2051      C2203   1.482       .  S
C2052      C2115   1.481       .  S
O2053     Ni2061   1.928       .  S
O2053      C2063   1.283       .  A
O2054     Ni2061   1.928       .  S
O2054      C2064   1.284       .  A
O2055     Ni2061   1.902       .  S
O2055      C2065   1.279       .  A
O2056     Ni2061   1.903       .  S
O2056      C2066   1.279       .  A
O2057     Ni2062   1.931       .  S
O2058     Ni2062   1.932       .  S
O2059     Ni2062   1.904       .  S
O2060      C2063   1.280       .  A
C2063      C2665   1.479       .  S
C2065      C2235   1.477       .  S
C2066      C2137   1.483       .  S
O2067     Ni2075   1.925       .  S
O2067      C2077   1.283       .  A
O2068     Ni2075   1.930       .  S
O2068      C2078   1.285       .  A
O2069     Ni2075   1.906       .  S
O2069      C2079   1.280       .  A
O2070     Ni2075   1.907       .  S
O2070      C2080   1.279       .  A
O2071     Ni2076   1.925       .  S
O2071      C2080   1.284       .  A
O2072     Ni2076   1.927       .  S
O2072      C2079   1.283       .  A
O2073     Ni2076   1.901       .  S
O2073      C2078   1.278       .  A
O2074     Ni2076   1.904       .  S
O2074      C2077   1.280       .  A
Ni2075    Ni2076   2.388       .  S
C2077      C2543   1.476       .  S
C2078      C2093   1.479       .  S
C2079      C2169   1.477       .  S
C2080      C2103   1.477       .  S
C2081      C2082   1.402       .  A
C2082      C2083   1.394       .  A
C2082      H2095   1.083       .  S
C2083      C2084   1.413       .  A
C2083      H2096   1.077       .  S
C2084      C2090   1.429       .  A
C2085      C2087   1.398       .  A
C2085      C2086   1.406       .  A
C2086      H2097   1.085       .  S
C2087      C2088   1.389       .  A
C2087      H2098   1.084       .  S
C2088      H2099   1.084       .  S
C2089      C2090   1.420       .  A
C2089      C2094   1.402       .  A
C2090      C2091   1.417       .  A
C2091      C2092   1.398       .  A
C2091      H2100   1.077       .  S
C2092      C2093   1.399       .  A
C2092      H2101   1.083       .  S
C2093      C2094   1.403       .  A
C2094      H2102   1.085       .  S
C2103      C2104   1.398       .  A
C2103      C2108   1.403       .  A
C2104      C2105   1.397       .  A
C2104      H2117   1.084       .  S
C2105      C2106   1.416       .  A
C2105      H2118   1.076       .  S
C2106      C2112   1.429       .  A
C2106      C2107   1.421       .  A
C2107      C2109   1.400       .  A
C2107      C2108   1.403       .  A
C2108      H2119   1.085       .  S
C2109      C2110   1.390       .  A
C2109      H2120   1.083       .  S
C2110      C2111   1.399       .  A
C2110      H2121   1.084       .  S
C2111      C2112   1.424       .  A
C2111      C2116   1.407       .  A
C2112      C2113   1.412       .  A
C2113      C2114   1.393       .  A
C2113      H2122   1.077       .  S
C2114      C2115   1.403       .  A
C2114      H2123   1.083       .  S
C2115      C2116   1.402       .  A
C2116      H2124   1.084       .  S
C2125      C2126   1.398       .  A
C2125      C2130   1.402       .  A
C2126      C2127   1.397       .  A
C2126      H2139   1.084       .  S
C2127      C2128   1.417       .  A
C2127      H2140   1.076       .  S
C2128      C2134   1.430       .  A
C2128      C2129   1.421       .  A
C2129      C2131   1.400       .  A
C2129      C2130   1.404       .  A
C2130      H2141   1.085       .  S
C2131      C2132   1.390       .  A
C2132      C2133   1.399       .  A
C2133      C2134   1.424       .  A
C2133      C2138   1.408       .  A
C2134      C2135   1.412       .  A
C2135      C2136   1.393       .  A
C2135      H2144   1.077       .  S
C2136      C2137   1.403       .  A
C2136      H2145   1.083       .  S
C2137      C2138   1.402       .  A
C2138      H2146   1.084       .  S
C2147      C2148   1.399       .  A
C2147      C2152   1.404       .  A
C2148      C2149   1.396       .  A
C2148      H2161   1.083       .  S
C2149      C2150   1.415       .  A
C2149      H2162   1.077       .  S
C2150      C2156   1.430       .  A
C2150      C2151   1.421       .  A
C2151      C2153   1.400       .  A
C2151      C2152   1.406       .  A
C2152      H2163   1.085       .  S
C2153      C2154   1.391       .  A
C2153      H2164   1.083       .  S
C2154      C2155   1.399       .  A
C2154      H2165   1.084       .  S
C2155      C2156   1.424       .  A
C2155      C2160   1.408       .  A
C2156      C2157   1.413       .  A
C2157      C2158   1.394       .  A
C2157      H2166   1.077       .  S
C2158      C2159   1.402       .  A
C2158      H2167   1.084       .  S
C2159      C2160   1.402       .  A
C2160      H2168   1.085       .  S
C2169      C2170   1.399       .  A
C2169      C2174   1.403       .  A
C2170      C2171   1.390       .  A
C2170      H2183   1.084       .  S
C2171      C2172   1.413   1_565  A
C2171      H2184   1.076   1_565  S
C2172      C2178   1.427       .  A
C2172      C2173   1.423       .  A
C2173      C2175   1.401       .  A
C2173      C2174   1.410   1_545  A
C2174      H2185   1.084       .  S
C2175      C2176   1.393       .  A
C2175      H2186   1.083       .  S
C2176      C2177   1.401       .  A
C2176      H2187   1.084       .  S
C2177      C2178   1.423       .  A
C2177      C2182   1.410       .  A
C2178      C2179   1.412       .  A
C2179      C2180   1.390       .  A
C2179      H2188   1.076       .  S
C2180      C2181   1.400       .  A
C2180      H2189   1.084       .  S
C2181      C2182   1.404       .  A
C2182      H2190   1.084       .  S
C2191      C2192   1.401       .  A
C2191      C2196   1.400       .  A
C2192      C2193   1.402       .  A
C2192      H2205   1.083       .  S
C2193      C2194   1.417       .  A
C2193      H2206   1.078       .  S
C2194      C2200   1.432       .  A
C2194      C2195   1.423       .  A
C2195      C2197   1.397   1_556  A
C2195      C2196   1.398       .  A
C2196      H2207   1.085   1_556  S
C2197      C2198   1.384   1_554  A
C2198      C2199   1.397       .  A
C2198      H2209   1.084   1_556  S
C2199      C2200   1.422       .  A
C2199      C2204   1.398       .  A
C2200      C2201   1.417       .  A
C2201      C2202   1.403       .  A
C2201      H2210   1.077       .  S
C2202      C2203   1.402       .  A
C2202      H2211   1.083       .  S
C2203      C2204   1.401       .  A
C2204      H2212   1.085       .  S
C2213      C2214   1.402       .  A
C2214      C2215   1.395       .  A
C2214      H2227   1.083       .  S
C2215      C2216   1.414       .  A
C2215      H2228   1.077       .  S
C2216      C2222   1.430       .  A
C2216      C2217   1.424       .  A
C2218      H2229   1.085       .  S
C2219      H2230   1.084       .  S
C2220      C2221   1.399       .  A
C2221      C2222   1.421       .  A
C2221      C2226   1.403       .  A
C2222      C2223   1.416       .  A
C2223      C2224   1.398       .  A
C2223      H2232   1.077       .  S
C2224      C2225   1.399       .  A
C2224      H2233   1.083       .  S
C2225      C2226   1.403       .  A
C2226      H2234   1.085       .  S
C2235      C2236   1.400       .  A
C2235      C2240   1.399       .  A
C2236      C2237   1.403   1_565  A
C2237      C2238   1.418       .  A
C2237      H2250   1.077       .  S
C2238      C2244   1.432       .  A
C2238      C2239   1.422   1_545  A
C2239      C2241   1.397   1_565  A
C2239      C2240   1.398       .  A
C2240      H2251   1.085       .  S
C2241      C2242   1.384       .  A
C2241      H2252   1.084   1_545  S
C2242      C2243   1.397       .  A
C2242      H2253   1.084       .  S
C2243      C2244   1.423       .  A
C2243      C2248   1.399       .  A
C2244      C2245   1.417       .  A
C2245      C2246   1.402       .  A
C2245      H2254   1.078       .  S
C2246      C2247   1.402       .  A
C2246      H2255   1.083       .  S
C2247      C2248   1.400       .  A
C2248      H2256   1.085       .  S
C2257      C2258   1.401       .  A
C2257      C2262   1.399       .  A
C2258      C2259   1.395       .  A
C2258      H2271   1.084       .  S
C2259      C2260   1.413       .  A
C2259      H2272   1.077       .  S
C2260      C2266   1.431       .  A
C2260      C2261   1.425       .  A
C2261      C2263   1.398       .  A
C2261      C2262   1.406       .  A
C2262      H2273   1.085       .  S
C2263      C2264   1.389       .  A
C2263      H2274   1.083       .  S
C2264      C2265   1.399       .  A
C2264      H2275   1.084       .  S
C2265      C2266   1.421       .  A
C2265      C2270   1.402       .  A
C2266      C2267   1.417       .  A
C2267      C2268   1.399       .  A
C2267      H2276   1.077       .  S
C2268      C2269   1.400       .  A
C2268      H2277   1.083       .  S
C2269      C2270   1.403       .  A
C2270      H2278   1.084       .  S
C2279      C2280   1.400       .  A
C2280      C2281   1.391       .  A
C2280      H2293   1.084       .  S
C2281      H2294   1.076       .  S
C2282      C2288   1.429       .  A
C2282      C2283   1.423       .  A
C2283      C2285   1.401       .  A
C2283      C2284   1.411       .  A
C2284      H2295   1.084       .  S
C2285      C2286   1.394       .  A
C2285      H2296   1.084       .  S
C2286      C2287   1.401       .  A
C2286      H2297   1.084       .  S
C2287      C2288   1.423       .  A
C2287      C2292   1.411       .  A
C2289      C2290   1.390       .  A
C2289      H2298   1.076       .  S
C2290      H2299   1.083       .  S
C2291      C2292   1.405       .  A
C2292      H2300   1.084       .  S
C2301      C2302   1.401   1_556  A
C2301      C2306   1.401       .  A
C2303      H2316   1.076       .  S
C2304      C2310   1.429       .  A
C2304      C2305   1.424       .  A
C2305      C2307   1.399       .  A
C2305      C2306   1.408       .  A
C2306      H2317   1.085       .  S
C2307      C2308   1.391       .  A
C2307      H2318   1.084       .  S
C2308      C2309   1.400       .  A
C2308      H2319   1.084       .  S
C2309      C2310   1.421       .  A
C2309      C2314   1.405       .  A
C2311      C2312   1.396       .  A
C2311      H2320   1.076       .  S
C2312      H2321   1.083       .  S
C2313      C2314   1.404       .  A
C2314      H2322   1.084       .  S
C2323      C2324   1.403       .  A
C2323      C2328   1.400       .  A
C2324      C2325   1.397       .  A
C2324      H2337   1.083       .  S
C2325      C2326   1.414       .  A
C2325      H2338   1.078       .  S
C2326      C2332   1.432       .  A
C2326      C2327   1.424       .  A
C2327      C2329   1.398       .  A
C2327      C2328   1.406       .  A
C2328      H2339   1.085       .  S
C2329      C2330   1.389       .  A
C2329      H2340   1.084       .  S
C2330      C2331   1.399       .  A
C2330      H2341   1.084       .  S
C2331      C2332   1.421       .  A
C2331      C2336   1.403       .  A
C2332      C2333   1.417       .  A
C2333      C2334   1.401       .  A
C2333      H2342   1.077       .  S
C2334      C2335   1.399       .  A
C2334      H2343   1.083   1_556  S
C2335      C2336   1.403       .  A
C2336      H2344   1.085       .  S
C2345      C2346   1.402       .  A
C2345      C2350   1.401       .  A
C2346      C2347   1.401   1_655  A
C2346      H2359   1.083       .  S
C2347      C2348   1.416       .  A
C2347      H2360   1.077       .  S
C2348      C2354   1.432       .  A
C2348      C2349   1.422   1_455  A
C2349      C2351   1.398   1_655  A
C2349      C2350   1.400       .  A
C2350      H2361   1.085       .  S
C2351      C2352   1.386       .  A
C2351      H2362   1.084   1_455  S
C2352      C2353   1.398       .  A
C2352      H2363   1.084       .  S
C2353      C2354   1.422       .  A
C2353      C2358   1.400       .  A
C2354      C2355   1.417       .  A
C2355      C2356   1.401       .  A
C2355      H2364   1.077       .  S
C2356      C2357   1.401       .  A
C2356      H2365   1.083       .  S
C2357      C2358   1.401       .  A
C2358      H2366   1.085       .  S
C2367      C2368   1.399       .  A
C2367      C2372   1.403       .  A
C2368      C2369   1.391       .  A
C2368      H2381   1.084       .  S
C2369      C2370   1.414       .  A
C2369      H2382   1.076       .  S
C2370      C2376   1.429       .  A
C2370      C2371   1.423       .  A
C2371      C2373   1.401       .  A
C2371      C2372   1.410       .  A
C2372      H2383   1.084       .  S
C2373      C2374   1.394       .  A
C2373      H2384   1.083       .  S
C2374      C2375   1.401       .  A
C2374      H2385   1.084       .  S
C2375      C2376   1.423       .  A
C2375      C2380   1.411       .  A
C2376      C2377   1.412       .  A
C2377      C2378   1.391       .  A
C2377      H2386   1.076       .  S
C2378      C2379   1.401       .  A
C2378      H2387   1.084       .  S
C2379      C2380   1.404       .  A
C2380      H2388   1.084       .  S
C2389      C2390   1.402   1_556  A
C2389      C2394   1.401       .  A
C2390      C2391   1.397       .  A
C2390      H2403   1.083       .  S
C2391      C2392   1.414   1_554  A
C2392      C2398   1.431   1_556  A
C2392      C2393   1.424       .  A
C2393      C2395   1.398       .  A
C2393      C2394   1.405       .  A
C2394      H2405   1.085       .  S
C2395      C2396   1.388       .  A
C2395      H2406   1.084       .  S
C2396      C2397   1.399       .  A
C2396      H2407   1.084       .  S
C2397      C2398   1.421   1_556  A
C2397      C2402   1.403       .  A
C2399      C2400   1.399       .  A
C2399      H2408   1.077       .  S
C2400      C2401   1.399       .  A
C2400      H2409   1.083       .  S
C2402      H2410   1.085       .  S
C2411      C2412   1.401       .  A
C2411      C2416   1.401       .  A
C2412      C2413   1.400       .  A
C2412      H2425   1.083   1_556  S
C2413      C2414   1.416       .  A
C2413      H2426   1.077   1_556  S
C2414      C2420   1.432       .  A
C2414      C2415   1.423       .  A
C2415      C2417   1.398       .  A
C2415      C2416   1.401       .  A
C2416      H2427   1.085       .  S
C2417      C2418   1.386       .  A
C2417      H2428   1.084       .  S
C2418      C2419   1.398   1_455  A
C2418      H2429   1.084   1_455  S
C2419      C2420   1.422   1_655  A
C2419      C2424   1.401       .  A
C2420      C2421   1.416   1_456  A
C2421      C2422   1.401       .  A
C2422      C2423   1.402   1_554  A
C2423      C2424   1.402       .  A
C2424      H2432   1.085       .  S
C2433      C2434   1.403       .  A
C2433      C2438   1.402       .  A
C2434      C2435   1.394       .  A
C2434      H2447   1.083       .  S
C2435      C2436   1.412       .  A
C2435      H2448   1.077       .  S
C2436      C2442   1.430       .  A
C2436      C2437   1.424       .  A
C2437      C2439   1.399       .  A
C2437      C2438   1.407       .  A
C2438      H2449   1.084       .  S
C2439      C2440   1.390       .  A
C2439      H2450   1.084   1_556  S
C2440      C2441   1.400       .  A
C2440      H2451   1.084   1_556  S
C2441      C2442   1.421       .  A
C2441      C2446   1.403       .  A
C2442      C2443   1.417       .  A
C2443      C2444   1.398       .  A
C2443      H2452   1.077       .  S
C2444      C2445   1.399       .  A
C2444      H2453   1.084       .  S
C2445      C2446   1.402       .  A
C2446      H2454   1.085       .  S
C2455      C2460   1.403       .  A
C2456      C2457   1.389       .  A
C2456      H2469   1.084       .  S
C2457      H2470   1.076       .  S
C2458      C2459   1.424       .  A
C2459      C2461   1.401       .  A
C2459      C2460   1.412       .  A
C2460      H2471   1.084       .  S
C2461      C2462   1.394       .  A
C2461      H2472   1.084       .  S
C2462      C2463   1.401       .  A
C2462      H2473   1.083       .  S
C2463      C2468   1.411       .  A
C2464      C2465   1.413       .  A
C2465      C2466   1.390       .  A
C2465      H2474   1.076       .  S
C2466      C2467   1.400       .  A
C2466      H2475   1.084       .  S
C2468      H2476   1.084       .  S
C2477      C2478   1.403       .  A
C2477      C2482   1.402       .  A
C2478      C2479   1.392       .  A
C2478      H2491   1.083       .  S
C2479      C2480   1.412       .  A
C2479      H2492   1.077       .  S
C2480      C2486   1.430       .  A
C2480      C2481   1.424       .  A
C2481      C2483   1.400       .  A
C2481      C2482   1.409       .  A
C2482      H2493   1.084       .  S
C2483      C2484   1.391       .  A
C2483      H2494   1.084       .  S
C2484      C2485   1.400       .  A
C2484      H2495   1.084       .  S
C2485      C2486   1.421       .  A
C2485      C2490   1.405       .  A
C2486      C2487   1.416       .  A
C2487      C2488   1.396       .  A
C2487      H2496   1.076       .  S
C2488      C2489   1.398       .  A
C2488      H2497   1.084       .  S
C2489      C2490   1.403       .  A
C2490      H2498   1.085       .  S
C2499      C2500   1.402       .  A
C2499      C2504   1.401       .  A
C2500      C2501   1.395       .  A
C2500      H2513   1.083       .  S
C2501      C2502   1.414       .  A
C2501      H2514   1.077       .  S
C2502      C2508   1.430       .  A
C2502      C2503   1.424       .  A
C2503      C2505   1.399       .  A
C2503      C2504   1.406       .  A
C2504      H2515   1.085       .  S
C2505      C2506   1.390       .  A
C2505      H2516   1.084       .  S
C2506      C2507   1.400       .  A
C2506      H2517   1.084       .  S
C2507      C2508   1.421       .  A
C2507      C2512   1.404       .  A
C2508      C2509   1.416       .  A
C2509      C2510   1.398       .  A
C2509      H2518   1.077       .  S
C2510      C2511   1.400       .  A
C2510      H2519   1.083       .  S
C2511      C2512   1.403       .  A
C2512      H2520   1.085       .  S
C2521      C2522   1.402       .  A
C2521      C2526   1.400       .  A
C2522      C2523   1.404       .  A
C2522      H2535   1.083       .  S
C2523      C2524   1.418   1_565  A
C2523      H2536   1.078       .  S
C2524      C2530   1.434       .  A
C2524      C2525   1.423   1_545  A
C2525      C2527   1.397   1_565  A
C2525      C2526   1.399       .  A
C2526      H2537   1.085       .  S
C2527      C2528   1.384       .  A
C2527      H2538   1.084       .  S
C2528      C2529   1.397       .  A
C2528      H2539   1.084       .  S
C2529      C2530   1.422       .  A
C2529      C2534   1.398       .  A
C2530      C2531   1.418       .  A
C2531      C2532   1.405       .  A
C2531      H2540   1.078       .  S
C2532      C2533   1.403       .  A
C2532      H2541   1.083       .  S
C2533      C2534   1.402       .  A
C2534      H2542   1.085       .  S
C2543      C2544   1.399       .  A
C2543      C2548   1.403       .  A
C2544      C2545   1.389       .  A
C2544      H2557   1.084       .  S
C2545      C2546   1.413   1_655  A
C2545      H2558   1.076   1_655  S
C2546      C2552   1.426       .  A
C2546      C2547   1.422   1_455  A
C2547      C2549   1.400   1_655  A
C2547      C2548   1.408       .  A
C2548      H2559   1.084       .  S
C2549      C2550   1.393       .  A
C2549      H2560   1.084   1_455  S
C2550      C2551   1.401       .  A
C2550      H2561   1.084       .  S
C2551      C2552   1.422       .  A
C2551      C2556   1.408       .  A
C2552      C2553   1.412       .  A
C2553      C2554   1.388       .  A
C2553      H2562   1.076       .  S
C2554      C2555   1.401       .  A
C2554      H2563   1.083       .  S
C2555      C2556   1.404       .  A
C2556      H2564   1.084       .  S
C2565      C2566   1.400       .  A
C2565      C2570   1.404       .  A
C2566      C2567   1.390       .  A
C2566      H2579   1.084   1_556  S
C2567      C2568   1.412       .  A
C2567      H2580   1.076   1_556  S
C2568      C2574   1.428       .  A
C2568      C2569   1.422       .  A
C2569      C2571   1.401       .  A
C2569      C2570   1.410       .  A
C2570      H2581   1.084       .  S
C2571      C2572   1.394       .  A
C2571      H2582   1.083       .  S
C2572      C2573   1.401       .  A
C2572      H2583   1.084       .  S
C2573      C2574   1.423       .  A
C2573      C2578   1.411       .  A
C2574      C2575   1.412       .  A
C2575      C2576   1.389       .  A
C2575      H2584   1.076   1_556  S
C2576      C2577   1.401       .  A
C2576      H2585   1.083       .  S
C2577      C2578   1.405       .  A
C2578      H2586   1.084       .  S
C2587      C2588   1.402   1_556  A
C2587      C2592   1.402       .  A
C2588      C2589   1.402       .  A
C2589      C2590   1.416   1_554  A
C2590      C2596   1.433       .  A
C2590      C2591   1.422       .  A
C2591      C2593   1.398       .  A
C2591      C2592   1.401       .  A
C2592      H2603   1.085       .  S
C2593      C2594   1.386       .  A
C2593      H2604   1.084       .  S
C2594      C2595   1.398   1_455  A
C2594      H2605   1.084       .  S
C2595      C2596   1.423   1_655  A
C2595      C2600   1.402       .  A
C2596      C2597   1.417   1_455  A
C2597      C2598   1.401       .  A
C2597      H2606   1.077   1_556  S
C2598      C2599   1.402       .  A
C2598      H2607   1.083   1_556  S
C2599      C2600   1.401       .  A
C2600      H2608   1.085       .  S
C2609      C2610   1.399       .  A
C2609      C2614   1.403       .  A
C2610      C2611   1.399       .  A
C2610      H2623   1.083       .  S
C2611      C2612   1.417       .  A
C2611      H2624   1.077       .  S
C2612      C2618   1.431       .  A
C2612      C2613   1.421       .  A
C2613      C2615   1.399       .  A
C2613      C2614   1.403       .  A
C2614      H2625   1.085       .  S
C2615      C2616   1.389       .  A
C2615      H2626   1.084       .  S
C2616      C2617   1.398       .  A
C2616      H2627   1.084       .  S
C2617      C2618   1.424       .  A
C2617      C2622   1.407       .  A
C2618      C2619   1.413       .  A
C2619      C2620   1.395       .  A
C2619      H2628   1.077       .  S
C2620      C2621   1.403       .  A
C2620      H2629   1.083       .  S
C2621      C2622   1.401       .  A
C2622      H2630   1.085       .  S
C2631      C2632   1.400       .  A
C2631      C2636   1.403       .  A
C2632      C2633   1.391       .  A
C2632      H2645   1.084       .  S
C2633      C2634   1.413   1_565  A
C2633      H2646   1.076   1_565  S
C2634      C2640   1.429       .  A
C2634      C2635   1.422   1_545  A
C2635      C2637   1.400   1_565  A
C2635      C2636   1.410       .  A
C2636      H2647   1.084       .  S
C2637      C2638   1.393       .  A
C2637      H2648   1.083   1_545  S
C2638      C2639   1.401       .  A
C2638      H2649   1.084       .  S
C2639      C2640   1.423       .  A
C2639      C2644   1.410       .  A
C2640      C2641   1.412       .  A
C2641      C2642   1.390       .  A
C2641      H2650   1.076       .  S
C2642      C2643   1.402       .  A
C2642      H2651   1.083       .  S
C2643      C2644   1.404       .  A
C2644      H2652   1.084       .  S
C2653      C2654   1.399       .  A
C2653      C2658   1.403       .  A
C2654      C2655   1.390       .  A
C2654      H2667   1.084       .  S
C2655      C2656   1.413       .  A
C2655      H2668   1.076       .  S
C2656      C2662   1.428       .  A
C2656      C2657   1.423       .  A
C2657      C2659   1.401       .  A
C2657      C2658   1.409       .  A
C2658      H2669   1.084       .  S
C2659      C2660   1.393       .  A
C2659      H2670   1.084       .  S
C2660      C2661   1.400       .  A
C2660      H2671   1.083       .  S
C2661      C2662   1.423       .  A
C2661      C2666   1.409       .  A
C2662      C2663   1.412       .  A
C2663      C2664   1.390       .  A
C2663      H2672   1.076       .  S
C2664      C2665   1.400       .  A
C2665      C2666   1.403       .  A
C2666      H2674   1.084       .  S
C2675      C2676   1.402       .  A
C2675      C2680   1.401       .  A
C2676      C2677   1.394       .  A
C2676      H2689   1.083       .  S
C2677      C2678   1.413       .  A
C2677      H2690   1.077       .  S
C2678      C2684   1.429       .  A
C2678      C2679   1.423       .  A
C2679      C2681   1.399       .  A
C2679      C2680   1.405       .  A
C2680      H2691   1.084       .  S
C2681      C2682   1.389       .  A
C2681      H2692   1.084       .  S
C2682      C2683   1.399       .  A
C2682      H2693   1.084       .  S
C2683      C2684   1.421       .  A
C2683      C2688   1.402       .  A
C2684      C2685   1.417       .  A
C2685      C2686   1.397       .  A
C2685      H2694   1.077       .  S
C2686      C2687   1.399       .  A
C2686      H2695   1.084       .  S
C2687      C2688   1.402       .  A
C2688      H2696   1.085       .  S
C2697      C2698   1.401       .  A
C2697      C2702   1.400   1_554  A
C2698      H2711   1.083       .  S
C2699      C2700   1.417       .  A
C2699      H2712   1.078       .  S
C2700      C2706   1.432       .  A
C2700      C2701   1.422       .  A
C2701      C2703   1.398       .  A
C2702      H2713   1.085       .  S
C2703      C2704   1.385       .  A
C2704      C2705   1.398       .  A
C2704      H2715   1.084       .  S
C2705      C2706   1.422       .  A
C2705      C2710   1.400       .  A
C2706      C2707   1.416       .  A
C2707      C2708   1.401       .  A
C2707      H2716   1.077       .  S
C2708      C2709   1.402       .  A
C2708      H2717   1.083       .  S
C2709      C2710   1.401       .  A
C2710      H2718   1.085       .  S
C2719      C2720   1.402       .  A
C2720      C2721   1.404       .  A
C2720      H2733   1.083       .  S
C2721      C2722   1.418       .  A
C2721      H2734   1.078       .  S
C2722      C2728   1.433       .  A
C2723      C2725   1.398       .  A
C2723      C2724   1.399       .  A
C2724      H2735   1.085       .  S
C2725      C2726   1.384       .  A
C2725      H2736   1.084       .  S
C2726      C2727   1.398       .  A
C2726      H2737   1.084       .  S
C2727      C2732   1.399       .  A
C2728      C2729   1.417       .  A
C2729      C2730   1.403       .  A
C2729      H2738   1.078       .  S
C2730      H2739   1.083       .  S
C2731      C2732   1.400       .  A
C2732      H2740   1.085       .  S
C2741      C2742   1.403   1_556  A
C2741      C2746   1.402       .  A
C2742      C2743   1.396       .  A
C2743      C2744   1.413   1_554  A
C2744      C2750   1.431       .  A
C2744      C2745   1.424       .  A
C2745      C2747   1.399       .  A
C2745      C2746   1.407       .  A
C2746      H2757   1.084       .  S
C2747      C2748   1.389       .  A
C2747      H2758   1.084       .  S
C2748      C2749   1.399       .  A
C2748      H2759   1.084       .  S
C2749      C2750   1.421       .  A
C2749      C2754   1.404       .  A
C2751      C2752   1.399       .  A
C2751      H2760   1.077       .  S
C2752      H2761   1.084       .  S
C2753      C2754   1.402       .  A
C2754      H2762   1.085       .  S
C2763      C2764   1.402       .  A
C2763      C2768   1.400       .  A
C2764      C2765   1.396       .  A
C2764      H2777   1.083       .  S
C2765      C2766   1.414       .  A
C2765      H2778   1.078       .  S
C2766      C2772   1.430       .  A
C2766      C2767   1.424       .  A
C2767      C2769   1.398       .  A
C2767      C2768   1.404       .  A
C2768      H2779   1.085       .  S
C2769      C2770   1.388       .  A
C2769      H2780   1.084   1_556  S
C2770      C2771   1.399       .  A
C2770      H2781   1.084       .  S
C2771      C2772   1.421       .  A
C2771      C2776   1.403       .  A
C2772      C2773   1.416       .  A
C2773      C2774   1.399       .  A
C2773      H2782   1.077       .  S
C2774      C2775   1.400       .  A
C2774      H2783   1.083       .  S
C2775      C2776   1.403       .  A
C2776      H2784   1.085       .  S
