geometry optimzed in LAMMPS
_audit_creation_date              2020-12-01 
_audit_creation_method            'lammps2cif' 
_symmetry_space_group_name_H-M    'P1' 
_symmetry_Int_Tables_number       1 
_symmetry_cell_setting            triclinic 
loop_ 
_symmetry_equiv_pos_as_xyz 
  x,y,z 
_cell_length_a                    52.13952764 
_cell_length_b                    52.28226065540705 
_cell_length_c                    30.45151163620976 
_cell_angle_alpha                 89.82565426978749 
_cell_angle_beta                  89.7673170392648 
_cell_angle_gamma                 89.80236739272532 
loop_ 
_atom_site_label 
_atom_site_type_symbol 
_atom_site_fract_x 
_atom_site_fract_y 
_atom_site_fract_z 
_atom_site_charge 
O1          O  0.41037946  0.61037059  0.13329497    -0.73300
O2          O  0.40617954  0.68629464  0.11326631    -0.74300
O3          O  0.44688739  0.65080991  0.12906918    -0.62900
O4          O  0.37011039  0.64545193  0.11767797    -0.71300
O5          O  0.36619072  0.65159969  0.02273806    -0.70900
O6          O  0.44226073  0.65648167  0.03419233    -0.62100
O7          O  0.40144046  0.69180946  0.01836294    -0.74600
O8          O  0.40669202  0.61662045  0.03843273    -0.73400
Cu9        Cu  0.40861246  0.64807595  0.12070945     1.04600
Cu10       Cu  0.40406680  0.65440424  0.03079910     1.04300
C11         C  0.40909357  0.60161287  0.17243571     0.92900
C12         C  0.40241421  0.70094971  0.14617545     0.92000
C13         C  0.45661153  0.65382289  0.16714538     0.84200
C14         C  0.35607585  0.64761984  0.15198267     0.90400
O15         O  0.38634228  0.93864658  0.12090232    -0.73300
O16         O  0.39410242  0.86239764  0.12640009    -0.74300
O17         O  0.42884242  0.90407231  0.12742231    -0.62900
O18         O  0.35226229  0.89639944  0.12034377    -0.71300
O19         O  0.35441468  0.89544426  0.04763615    -0.70900
O20         O  0.43104626  0.90323723  0.05470997    -0.62100
O21         O  0.39713102  0.86094201  0.05378240    -0.74600
O22         O  0.38924490  0.93707372  0.04827632    -0.73400
Cu23       Cu  0.39029810  0.90045449  0.12630362     1.04600
Cu24       Cu  0.39300934  0.89908648  0.04858617     1.04300
C25         C  0.38673418  0.94989317  0.08360488     0.92900
C26         C  0.39690605  0.84965241  0.09101300     0.92000
C27         C  0.44201592  0.90497154  0.09199958     0.84200
C28         C  0.34125382  0.89466403  0.08310586     0.90400
O29         O  0.15406488  0.61181054  0.12415649    -0.73300
O30         O  0.15391218  0.68804119  0.14851141    -0.74300
O31         O  0.19251133  0.64969096  0.13743700    -0.62900
O32         O  0.11597363  0.65061724  0.13402292    -0.71300
O33         O  0.11408905  0.64156040  0.03844243    -0.70900
O34         O  0.19127858  0.64371448  0.04292922    -0.62100
O35         O  0.15187430  0.67980471  0.05325073    -0.74600
O36         O  0.15441223  0.60492007  0.02934953    -0.73400
Cu37       Cu  0.15414376  0.65025368  0.13348460     1.04600
Cu38       Cu  0.15279577  0.64214545  0.04339781     1.04300
C39         C  0.15477124  0.59638888  0.15682131     0.92900
C40         C  0.15299118  0.69579889  0.02163984     0.92000
C41         C  0.20397485  0.64723761  0.17414409     0.84200
C42         C  0.10287954  0.64650265  0.00207838     0.90400
O43         O  0.13725572  0.86313903  0.02063586    -0.73300
O44         O  0.13358101  0.93773613  0.04762535    -0.74300
O45         O  0.17437813  0.90309942  0.02700799    -0.62900
O46         O  0.09742124  0.89751171  0.04221000    -0.71300
O47         O  0.10318151  0.89089998  0.11350276    -0.70900
O48         O  0.17921381  0.89311946  0.09727873    -0.62100
O49         O  0.14077371  0.92999261  0.11812439    -0.74600
O50         O  0.14188069  0.85418678  0.09137140    -0.73400
Cu51       Cu  0.13555500  0.90068333  0.03192539     1.04600
Cu52       Cu  0.14146168  0.89175299  0.10752019     1.04300
C53         C  0.13965368  0.84680867  0.05154418     0.92900
C54         C  0.13642365  0.94577516  0.08682882     0.92000
C55         C  0.18893730  0.89852469  0.05989545     0.84200
C56         C  0.08829368  0.89362686  0.08065222     0.90400
O57         O  0.35009303  0.39839226  0.01928124    -0.73300
O58         O  0.42607955  0.39792157  0.99175297    -0.74300
O59         O  0.38932727  0.36057849  0.01599637    -0.62900
O60         O  0.38685885  0.43558590  0.99394775    -0.71300
O61         O  0.39809061  0.44270618  0.06298965    -0.70900
O62         O  0.39458016  0.36714887  0.08735648    -0.62100
O63         O  0.43367110  0.40178536  0.06305317    -0.74600
O64         O  0.35908200  0.40819002  0.08829299    -0.73400
Cu65       Cu  0.38775680  0.39786235  0.00276036     1.04600
Cu66       Cu  0.39664042  0.40522115  0.07784612     1.04300
C67         C  0.34270373  0.40394554  0.05824765     0.92900
C68         C  0.44179462  0.39920597  0.02376558     0.92000
C69         C  0.39199039  0.35195924  0.05492913     0.84200
C70         C  0.39264507  0.45104456  0.02461351     0.90400
O71         O  0.18516878  0.39714184  0.13485225    -0.73300
O72         O  0.11041761  0.39673028  0.16948407    -0.74300
O73         O  0.14853173  0.35854474  0.15532138    -0.62900
O74         O  0.14747923  0.43502999  0.14960641    -0.71300
O75         O  0.13549817  0.43385004  0.07989928    -0.70900
O76         O  0.13956522  0.35675770  0.08421477    -0.62100
O77         O  0.10030149  0.39332310  0.09911271    -0.74600
O78         O  0.17427927  0.39608074  0.06458430    -0.73400
Cu79       Cu  0.14821851  0.39697353  0.15473151     1.04600
Cu80       Cu  0.13695571  0.39504789  0.07957198     1.04300
C81         C  0.19145074  0.39642902  0.09425613     0.92900
C82         C  0.09359579  0.39419573  0.13944996     0.92000
C83         C  0.14481297  0.34559837  0.12047237     0.84200
C84         C  0.14156252  0.44661703  0.11408960     0.90400
O85         O  0.35325666  0.15128682  0.06161276    -0.73300
O86         O  0.42815819  0.14923313  0.09052282    -0.74300
O87         O  0.39172777  0.18885048  0.07559316    -0.62900
O88         O  0.38948109  0.11216953  0.07650393    -0.71300
O89         O  0.39936792  0.11175674  0.00559786    -0.70900
O90         O  0.40153081  0.18810990  0.00466195    -0.62100
O91         O  0.43738896  0.14937247  0.01931732    -0.74600
O92         O  0.36273448  0.15144549  0.15717387    -0.73400
Cu93       Cu  0.39028859  0.15039190  0.07853879     1.04600
Cu94       Cu  0.40049611  0.15009411  0.16922843     1.04300
C95         C  0.34619573  0.15172435  0.02153905     0.92900
C96         C  0.44456998  0.14945097  0.05929997     0.92000
C97         C  0.39747564  0.20055460  0.04000556     0.84200
C98         C  0.39429833  0.09985424  0.04127176     0.90400
O99         O  0.14863129  0.18329935  0.11948039    -0.73300
O100        O  0.14857239  0.10681429  0.11340048    -0.74300
O101        O  0.11083415  0.14527500  0.10522877    -0.62900
O102        O  0.18657445  0.14479482  0.12825894    -0.71300
O103        O  0.17877602  0.14248112  0.03318898    -0.70900
O104        O  0.10360722  0.14344483  0.01040449    -0.62100
O105        O  0.14162857  0.10443094  0.01860338    -0.74600
O106        O  0.14060209  0.18151954  0.02433602    -0.73400
Cu107      Cu  0.14895533  0.14512791  0.11412304     1.04600
Cu108      Cu  0.14092477  0.14291287  0.02413635     1.04300
C109        C  0.14420617  0.19454180  0.15590146     0.92900
C110        C  0.14510146  0.09354504  0.14815403     0.92000
C111        C  0.09531899  0.14455665  0.13774350     0.84200
C112        C  0.19457507  0.14329076  0.16777470     0.90400
O113        O  0.60662681  0.39219836  0.17792137    -0.73300
O114        O  0.68357139  0.39606049  0.19204515    -0.74300
O115        O  0.64809036  0.35680431  0.17385933    -0.62900
O116        O  0.64228337  0.43138548  0.19423195    -0.71300
O117        O  0.64010708  0.42537591  0.09961354    -0.70900
O118        O  0.64248258  0.34867254  0.07808816    -0.62100
O119        O  0.67923537  0.38708451  0.09623476    -0.74600
O120        O  0.60338743  0.38601115  0.08314112    -0.73400
Cu121      Cu  0.64529795  0.39437546  0.18209913     1.04600
Cu122      Cu  0.64114437  0.38661221  0.09183591     1.04300
C123        C  0.59292646  0.38829152  0.04554431     0.92900
C124        C  0.69349324  0.39164944  0.06305347     0.92000
C125        C  0.64608057  0.34085493  0.03875110     0.84200
C126        C  0.64040997  0.44036173  0.06626597     0.90400
O127        O  0.60455093  0.14945697  0.10097358    -0.73300
O128        O  0.68078491  0.14799424  0.11105365    -0.74300
O129        O  0.64266740  0.11233172  0.08569277    -0.62900
O130        O  0.64237375  0.18525099  0.12628141    -0.71300
O131        O  0.63494165  0.17252708  0.02790959    -0.70900
O132        O  0.64265698  0.09970713  0.98850524    -0.62100
O133        O  0.67701353  0.13882782  0.01529499    -0.74600
O134        O  0.60061445  0.13346338  0.00146338    -0.73400
Cu135      Cu  0.64273247  0.14920390  0.10367087     1.04600
Cu136      Cu  0.63870483  0.13565324  0.01069003     1.04300
C137        C  0.59050162  0.14112921  0.96560536     0.92900
C138        C  0.69090682  0.14392481  0.98180061     0.92000
C139        C  0.64294724  0.09447531  0.94756643     0.84200
C140        C  0.63810725  0.19046366  0.99993916     0.90400
O141        O  0.89528530  0.43703454  0.07970941    -0.73300
O142        O  0.89810938  0.36131777  0.09434772    -0.74300
O143        O  0.93584222  0.40056533  0.08430485    -0.62900
O144        O  0.85812554  0.39837783  0.08858040    -0.71300
O145        O  0.85788537  0.39731996  0.01578562    -0.70900
O146        O  0.93393663  0.39269551  0.01290811    -0.62100
O147        O  0.89349786  0.35678625  0.02242130    -0.74600
O148        O  0.89759152  0.43297303  0.00730022    -0.73400
Cu149      Cu  0.89700151  0.39942056  0.08938396     1.04600
Cu150      Cu  0.89581754  0.39469741  0.01215753     1.04300
C151        C  0.89568056  0.44698221  0.04143127     0.92900
C152        C  0.89504627  0.34706825  0.06086058     0.92000
C153        C  0.94705851  0.39672719  0.04744122     0.84200
C154        C  0.84589758  0.39862357  0.05224531     0.90400
O155        O  0.89297089  0.11369213  0.01305061    -0.73300
O156        O  0.89107454  0.19027057  0.99933859    -0.74300
O157        O  0.85347535  0.15072893  0.00223084    -0.62900
O158        O  0.92984381  0.15379382  0.01062796    -0.71300
O159        O  0.93305831  0.15054247  0.10483122    -0.70900
O160        O  0.85664145  0.14463104  0.09704465    -0.62100
O161        O  0.89232826  0.18575857  0.09358899    -0.74600
O162        O  0.89783609  0.11014405  0.10759545    -0.73400
Cu163      Cu  0.89162533  0.15226634  0.00887294     1.04600
Cu164      Cu  0.89496473  0.14766764  0.09826505     1.04300
C165        C  0.89640069  0.09990397  0.97890824     0.92900
C166        C  0.89199574  0.20000138  0.96085971     0.92000
C167        C  0.84299653  0.14657717  0.96513780     0.84200
C168        C  0.94348506  0.15301332  0.97578167     0.90400
O169        O  0.65159451  0.60408222  0.12676865    -0.73300
O170        O  0.64508929  0.68027481  0.11389937    -0.74300
O171        O  0.61061976  0.63839750  0.10826487    -0.62900
O172        O  0.68602333  0.64581028  0.13224568    -0.71300
O173        O  0.69379818  0.64365999  0.06068425    -0.70900
O174        O  0.61851169  0.63636220  0.03670922    -0.62100
O175        O  0.65246990  0.67744303  0.04222733    -0.74600
O176        O  0.65880599  0.60135717  0.05505788    -0.73400
Cu177      Cu  0.64809558  0.64223429  0.12279832     1.04600
Cu178      Cu  0.65631769  0.63948131  0.04626164     1.04300
C179        C  0.65565146  0.59067514  0.09250355     0.92900
C180        C  0.64731728  0.69077856  0.07612950     0.92000
C181        C  0.60267021  0.63673637  0.06873199     0.84200
C182        C  0.70176844  0.64625956  0.10004782     0.90400
O183        O  0.93594488  0.64240962  0.05139435    -0.73300
O184        O  0.85927514  0.64651843  0.03917580    -0.74300
O185        O  0.89594058  0.60714414  0.03932581    -0.62900
O186        O  0.89953421  0.68296818  0.05161890    -0.71300
O187        O  0.90188657  0.68689760  0.14583219    -0.70900
O188        O  0.90193928  0.61047029  0.13406742    -0.62100
O189        O  0.86352749  0.64944561  0.13352482    -0.74600
O190        O  0.94011690  0.64814398  0.14624201    -0.73400
Cu191      Cu  0.89750423  0.64473248  0.04788414     1.04600
Cu192      Cu  0.90199814  0.64892581  0.13737875     1.04300
C193        C  0.95012983  0.64450239  0.01728745     0.92900
C194        C  0.84929306  0.64786144  0.16764472     0.92000
C195        C  0.89877388  0.59677518  0.00176169     0.84200
C196        C  0.90111548  0.69694196  0.18396394     0.90400
O197        O  0.63676922  0.85472248  0.05458312    -0.73300
O198        O  0.64189423  0.93263586  0.05553931    -0.74300
O199        O  0.67606029  0.89086395  0.03935955    -0.62900
O200        O  0.60175156  0.89654135  0.06824628    -0.71300
O201        O  0.60985677  0.89380424  0.13949482    -0.70900
O202        O  0.68577856  0.89151526  0.11016082    -0.62100
O203        O  0.64973347  0.93008416  0.12690782    -0.74600
O204        O  0.64718418  0.85506870  0.12506796    -0.73400
Cu205      Cu  0.63865322  0.89373477  0.05190460     1.04600
Cu206      Cu  0.64829495  0.89258152  0.12778373     1.04300
C207        C  0.64250885  0.84276473  0.09004920     0.92900
C208        C  0.64730409  0.94337523  0.09211823     0.92000
C209        C  0.69271068  0.89046034  0.06985004     0.84200
C210        C  0.59386456  0.89598408  0.10790670     0.90400
O211        O  0.89869539  0.85972377  0.04116932    -0.73300
O212        O  0.89630368  0.93650598  0.04924427    -0.74300
O213        O  0.86045868  0.89717562  0.06104991    -0.62900
O214        O  0.93497252  0.89999983  0.02984767    -0.71300
O215        O  0.92546577  0.90025709  0.12560441    -0.70900
O216        O  0.85023418  0.89979160  0.15721866    -0.62100
O217        O  0.88802015  0.93833365  0.14451213    -0.74600
O218        O  0.88742432  0.86215436  0.13780908    -0.73400
Cu219      Cu  0.89799415  0.89816916  0.04772852     1.04600
Cu220      Cu  0.88746815  0.90019712  0.13882434     1.04300
C221        C  0.89289495  0.84883038  0.17166494     0.92900
C222        C  0.89183025  0.94944902  0.18116403     0.92000
C223        C  0.84356895  0.89863980  0.19760225     0.84200
C224        C  0.94204676  0.90070314  0.15637158     0.90400
C225        C  0.81629855  0.89960094  0.04335189    -0.05600
C226        C  0.80857207  0.91428051  0.07961472    -0.05500
C227        C  0.78281312  0.91541026  0.09211878    -0.23700
C228        C  0.76438243  0.90158248  0.06886785     0.18500
C229        C  0.77195530  0.88677898  0.19885443     0.15700
C230        C  0.79787945  0.88600754  0.18614249    -0.18700
C231        C  0.75347419  0.87302794  0.17554416    -0.20600
C232        C  0.72769889  0.87420750  0.18808199    -0.13100
C233        C  0.72005479  0.88879452  0.05785129     0.03600
C234        C  0.73848857  0.90237585  0.08161637    -0.25300
H235        H  0.82247911  0.92522555  0.09793290     0.08600
H236        H  0.77734117  0.92696465  0.12013944     0.12200
H237        H  0.80379682  0.87463924  0.15812432     0.12200
H238        H  0.75890986  0.86154681  0.14741563     0.11900
H239        H  0.71372573  0.86349422  0.16949068     0.12500
H240        H  0.73261022  0.91385512  0.10952662     0.14400
C241        C  0.89205098  0.82068636  0.16865295    -0.05600
C242        C  0.87755359  0.80911311  0.13540535    -0.05500
C243        C  0.87624049  0.78256164  0.13222002    -0.23700
C244        C  0.88975847  0.76708186  0.16177871     0.18500
C245        C  0.90445927  0.77846749  0.19536072     0.15700
C246        C  0.90541212  0.80522857  0.19873070    -0.18700
C247        C  0.91781949  0.76285259  0.22508540    -0.20600
C248        C  0.91634275  0.73623517  0.22188127    -0.13100
C249        C  0.90207102  0.72489858  0.18822162     0.06800
C250        C  0.88889782  0.74039760  0.15814857    -0.25300
H251        H  0.86699874  0.82063119  0.11195687     0.08600
H252        H  0.86486482  0.77413803  0.10633861     0.12200
H253        H  0.91664704  0.81399244  0.22447845     0.12200
H254        H  0.92914987  0.77121394  0.25107703     0.11900
H255        H  0.92667225  0.72447844  0.24527545     0.12500
H256        H  0.87776391  0.73165026  0.13223364     0.14400
C257        C  0.64533440  0.81466140  0.09159427    -0.05600
C258        C  0.66095831  0.80393271  0.12449121    -0.05500
C259        C  0.66457526  0.77764763  0.12744156    -0.23700
C260        C  0.65236495  0.76140202  0.09792979     0.18500
C261        C  0.63669517  0.77178190  0.06438610     0.15700
C262        C  0.63337610  0.79847802  0.06120073    -0.18700
C263        C  0.62477944  0.75520367  0.03466795    -0.20600
C264        C  0.62863292  0.72875578  0.03794265    -0.13100
C265        C  0.64383901  0.71852428  0.07168592     0.03600
C266        C  0.65555666  0.73490056  0.10166816    -0.25300
H267        H  0.67067642  0.81595599  0.14803949     0.08600
H268        H  0.67672059  0.77001010  0.15317681     0.12200
H269        H  0.62144303  0.80656833  0.03557540     0.12200
H270        H  0.61274909  0.76269039  0.00866838     0.11900
H271        H  0.61940789  0.71623447  0.01458078     0.12500
H272        H  0.66740233  0.72697833  0.12760662     0.14400
C273        C  0.72932162  0.65016429  0.10829744    -0.05600
C274        C  0.74352963  0.66670753  0.08127185    -0.05500
C275        C  0.76968283  0.67052142  0.08870937    -0.23700
C276        C  0.78220045  0.65726270  0.12256375     0.18500
C277        C  0.76797162  0.64070162  0.15016678     0.15700
C278        C  0.74154129  0.63753913  0.14323444    -0.18700
C279        C  0.78049066  0.62741620  0.01731000    -0.20600
C280        C  0.80680864  0.63055702  0.02384434    -0.13100
C281        C  0.82118334  0.64651865  0.16269820     0.03600
C282        C  0.80876604  0.65986181  0.12871910    -0.25300
H283        H  0.73433278  0.67676437  0.05441969     0.08600
H284        H  0.78025375  0.68328736  0.06722527     0.12200
H285        H  0.73062141  0.62480620  0.99759850     0.12200
H286        H  0.76989521  0.61471756  0.03887962     0.11900
H287        H  0.81607396  0.61997263  0.05002325     0.12500
H288        H  0.81979850  0.67212088  0.10700004     0.14400
C289        C  0.89921373  0.07195850  0.98257754    -0.05600
C290        C  0.91449186  0.05897761  0.11838112    -0.05500
C291        C  0.91677475  0.03245486  0.11973335    -0.23700
C292        C  0.90331995  0.01836984  0.15136250     0.18500
C293        C  0.88813784  0.03118779  0.01641907     0.15700
C294        C  0.88638848  0.05802424  0.01546012    -0.18700
C295        C  0.87481316  0.01685784  0.04814132    -0.20600
C296        C  0.87663040  0.99014708  0.04844019    -0.13100
C297        C  0.89115681  0.97746399  0.18295342     0.03600
C298        C  0.90447060  0.99162772  0.15121638    -0.25300
H299        H  0.92468786  0.06940842  0.09298992     0.08600
H300        H  0.92854453  0.02291214  0.09531523     0.12200
H301        H  0.87459501  0.06796140  0.03939512     0.12200
H302        H  0.86314063  0.02629627  0.07279859     0.11900
H303        H  0.86620103  0.97934713  0.07308268     0.12500
H304        H  0.91573159  0.98177086  0.12641957     0.14400
C305        C  0.89871046  0.56873366  0.99898169    -0.05600
C306        C  0.91360885  0.55587989  0.13418256    -0.05500
C307        C  0.91572241  0.52920379  0.13535671    -0.23700
C308        C  0.90256554  0.51508796  0.00085242     0.18500
C309        C  0.88680556  0.52800253  0.03158472     0.15700
C310        C  0.88502203  0.55464713  0.03044455    -0.18700
C311        C  0.87365997  0.51416239  0.06391816    -0.20600
C312        C  0.87690196  0.48780373  0.06702086    -0.13100
C313        C  0.89273320  0.47478237  0.03710136     0.03600
C314        C  0.90512968  0.48838530  0.17008170    -0.25300
H315        H  0.92431851  0.56650600  0.10968091     0.08600
H316        H  0.92777071  0.51964727  0.11136628     0.12200
H317        H  0.87338030  0.56450253  0.05472368     0.12200
H318        H  0.86147859  0.52380723  0.08762025     0.11900
H319        H  0.86689841  0.47751332  0.09280722     0.12500
H320        H  0.91720926  0.47831763  0.14673001     0.14400
C321        C  0.89409020  0.22783195  0.12209406    -0.05600
C322        C  0.91052068  0.24170396  0.14946566    -0.05500
C323        C  0.91451302  0.26777489  0.14227756    -0.23700
C324        C  0.90156823  0.28047287  0.10831306     0.18500
C325        C  0.88473614  0.26665593  0.08092106     0.15700
C326        C  0.88136422  0.24033255  0.08764146    -0.18700
C327        C  0.87176566  0.27936291  0.04700603    -0.20600
C328        C  0.87578062  0.30542560  0.03975978    -0.13100
C329        C  0.89232313  0.31929537  0.06695800     0.03600
C330        C  0.90504779  0.30676413  0.10143205    -0.25300
H331        H  0.92078416  0.23219667  0.00911171     0.08600
H332        H  0.92745020  0.27805955  0.16361241     0.12200
H333        H  0.86887904  0.22956620  0.06617325     0.12200
H334        H  0.85882589  0.26907578  0.02568153     0.11900
H335        H  0.86557628  0.31487095  0.01333338     0.12500
H336        H  0.91769298  0.31745520  0.12273618     0.14400
C337        C  0.64332273  0.06759013  0.10014962    -0.05600
C338        C  0.62842631  0.05946389  0.06450652    -0.05500
C339        C  0.62730298  0.03352123  0.05341399    -0.23700
C340        C  0.64105967  0.01535602  0.07790433     0.18500
C341        C  0.65662061  0.02367744  0.11306972     0.15700
C342        C  0.65761970  0.04964500  0.95719450    -0.18700
C343        C  0.67029190  0.00583995  0.97123153    -0.20600
C344        C  0.66769035  0.97987030  0.12957667    -0.13100
C345        C  0.65158864  0.97115015  0.09585226     0.03600
C346        C  0.63885464  0.98901517  0.06908632    -0.25300
H347        H  0.61688131  0.07305372  0.04631001     0.08600
H348        H  0.61527150  0.02762748  0.02636438     0.12200
H349        H  0.66917543  0.05587404  0.98468700     0.12200
H350        H  0.68238141  0.01190629  0.99810913     0.11900
H351        H  0.67794377  0.96646887  0.98362040     0.12500
H352        H  0.62644426  0.98244262  0.04299975     0.14400
C353        C  0.71882329  0.14568129  0.98629135    -0.05600
C354        C  0.72945524  0.16053723  0.01980796    -0.05500
C355        C  0.75597020  0.16393679  0.02212652    -0.23700
C356        C  0.77221045  0.15194140  0.99161135     0.18500
C357        C  0.76159049  0.13643659  0.95838025     0.15700
C358        C  0.73492120  0.13362476  0.95567634    -0.18700
C359        C  0.77780415  0.12433010  0.09471404    -0.20600
C360        C  0.80426851  0.12805326  0.09652220    -0.13100
C361        C  0.81498405  0.14345775  0.96262915     0.03600
C362        C  0.79886224  0.15519368  0.99371357    -0.25300
H363        H  0.71717275  0.17007270  0.04346406     0.08600
H364        H  0.76377817  0.17584661  0.04784996     0.12200
H365        H  0.72664870  0.12213702  0.09647794     0.12200
H366        H  0.76998118  0.11232152  0.06913797     0.11900
H367        H  0.81641307  0.11863098  0.07253102     0.12500
H368        H  0.80703599  0.16703368  0.01923031     0.14400
C369        C  0.65530362  0.56259667  0.09560297    -0.05600
C370        C  0.66858093  0.54952778  0.12886990    -0.05500
C371        C  0.66782702  0.52274894  0.13119878    -0.23700
C372        C  0.65310661  0.50878784  0.10111580     0.18500
C373        C  0.63913069  0.52209294  0.06842947     0.15700
C374        C  0.64059351  0.54877722  0.06558969    -0.18700
C375        C  0.62418457  0.50851357  0.03851991    -0.20600
C376        C  0.62401686  0.48191026  0.03945252    -0.13100
C377        C  0.63833292  0.46833757  0.07082672     0.03600
C378        C  0.65241114  0.48183832  0.10244137    -0.25300
H379        H  0.67979689  0.56002075  0.15260675     0.08600
H380        H  0.67856342  0.51299156  0.15665929     0.12200
H381        H  0.63000696  0.55889470  0.04028304     0.12200
H382        H  0.61328036  0.51844233  0.01344554     0.11900
H383        H  0.61305409  0.47182387  0.18149838     0.12500
H384        H  0.66362920  0.47143918  0.12654427     0.14400
C385        C  0.81779597  0.40114330  0.05132327    -0.05600
C386        C  0.80644044  0.41587692  0.01797928    -0.05500
C387        C  0.77985491  0.41772371  0.01468620    -0.23700
C388        C  0.76412431  0.40432384  0.04405313     0.18500
C389        C  0.77533785  0.38961674  0.07809017     0.15700
C390        C  0.80218453  0.38838353  0.08190097    -0.18700
C391        C  0.75947824  0.37615400  0.10727662    -0.20600
C392        C  0.73283695  0.37721562  0.10272813    -0.13100
C393        C  0.72160133  0.39141527  0.06850061     0.03600
C394        C  0.73738611  0.40503562  0.03937293    -0.25300
H395        H  0.81822635  0.42595798  0.99424009     0.08600
H396        H  0.77161038  0.42909384  0.15510358     0.12200
H397        H  0.81089650  0.37693603  0.10761336     0.12200
H398        H  0.76766435  0.36481307  0.13359726     0.11900
H399        H  0.72100547  0.36655108  0.12561357     0.12500
H400        H  0.72887095  0.41612473  0.17965579     0.14400
C401        C  0.63718357  0.21738996  0.01422801    -0.05600
C402        C  0.62238330  0.22482052  0.05072301    -0.05500
C403        C  0.62145747  0.25046861  0.06373517    -0.23700
C404        C  0.63550816  0.26903107  0.04066041     0.18500
C405        C  0.65058241  0.26156516  0.17079539     0.15700
C406        C  0.65128842  0.23589028  0.15786089    -0.18700
C407        C  0.66454784  0.27992397  0.14738736    -0.20600
C408        C  0.66317346  0.30558437  0.15932948    -0.13100
C409        C  0.64817286  0.31335173  0.02869106     0.03600
C410        C  0.63456054  0.29493510  0.05301125    -0.25300
H411        H  0.61120752  0.21084837  0.06876319     0.08600
H412        H  0.60975718  0.25577573  0.09177238     0.12200
H413        H  0.66289082  0.23028069  0.12983253     0.12200
H414        H  0.67620394  0.27450510  0.11934889     0.11900
H415        H  0.67388479  0.31945529  0.14022219     0.12500
H416        H  0.62280870  0.30082579  0.08066512     0.14400
C417        C  0.06756632  0.14501061  0.13032586    -0.05600
C418        C  0.05679124  0.13116019  0.09568339    -0.05500
C419        C  0.03019664  0.13018120  0.09074431    -0.23700
C420        C  0.01412153  0.14347776  0.95326155     0.18500
C421        C  0.02496599  0.15799280  0.98756817     0.15700
C422        C  0.05161225  0.15855887  0.15928290    -0.18700
C423        C  0.00897238  0.17124973  0.01680489    -0.20600
C424        C  0.98240422  0.16951879  0.01293915    -0.13100
C425        C  0.97147760  0.15504087  0.97914846     0.03600
C426        C  0.98740568  0.14231184  0.94900851    -0.25300
H427        H  0.06891528  0.12053148  0.07320822     0.08600
H428        H  0.02220271  0.11899026  0.06424928     0.12200
H429        H  0.05996220  0.16938244  0.01932296     0.12200
H430        H  0.01700003  0.18250111  0.04319805     0.11900
H431        H  0.97035690  0.17958001  0.03630308     0.12500
H432        H  0.97900390  0.13105617  0.92293270     0.14400
C433        C  0.47205621  0.15077359  0.06900086    -0.05600
C434        C  0.48774935  0.16646019  0.04296559    -0.05500
C435        C  0.51389880  0.16822695  0.05136654    -0.23700
C436        C  0.52485194  0.15381600  0.08529686     0.18500
C437        C  0.50924729  0.13789295  0.11176862     0.15700
C438        C  0.48276462  0.13673974  0.10382157    -0.18700
C439        C  0.52047875  0.12336487  0.97875519    -0.20600
C440        C  0.54690901  0.12471829  0.98618529    -0.13100
C441        C  0.56248722  0.14033438  0.12632959     0.03600
C442        C  0.55125406  0.15486283  0.09266425    -0.25300
H443        H  0.47969730  0.17751799  0.01617310     0.08600
H444        H  0.52563843  0.18044457  0.03073096     0.12200
H445        H  0.47063581  0.12459496  0.12393189     0.12200
H446        H  0.50883372  0.11111621  0.99948039     0.11900
H447        H  0.55520493  0.11332179  0.01230726     0.12500
H448        H  0.56308853  0.16698357  0.07197000     0.14400
C449        C  0.22222726  0.14216366  0.01008076    -0.05600
C450        C  0.23129003  0.12782142  0.04586943    -0.05500
C451        C  0.25748346  0.12648119  0.05468179    -0.23700
C452        C  0.27496502  0.13986923  0.02830154     0.18500
C453        C  0.26601105  0.15444049  0.15886329     0.15700
C454        C  0.23967223  0.15534033  0.14979004    -0.18700
C455        C  0.28356628  0.16785352  0.13257124    -0.20600
C456        C  0.30977251  0.16671578  0.14177898    -0.13100
C457        C  0.31871470  0.15247594  0.01114504     0.03600
C458        C  0.30123338  0.13909341  0.03761928    -0.25300
H459        H  0.21809089  0.11740695  0.06680479     0.08600
H460        H  0.26403624  0.11520767  0.08239805     0.12200
H461        H  0.23271377  0.16651808  0.12222047     0.12200
H462        H  0.27704743  0.17913057  0.10483949     0.11900
H463        H  0.32302664  0.17730965  0.12123314     0.12500
H464        H  0.30811842  0.12797733  0.06532484     0.14400
C465        C  0.97530203  0.39731347  0.04349221    -0.05600
C466        C  0.99022308  0.41330481  0.07008138    -0.05500
C467        C  0.01664371  0.41577597  0.06232653    -0.23700
C468        C  0.02856312  0.40190537  0.19503748     0.18500
C469        C  0.01366303  0.38529292  0.00239867     0.15700
C470        C  0.98726336  0.38319896  0.01000468    -0.18700
C471        C  0.02522124  0.37143962  0.13500619    -0.20600
C472        C  0.05119809  0.37459201  0.12573329    -0.13100
C473        C  0.06625086  0.39119533  0.15087140     0.03600
C474        C  0.05496456  0.40453257  0.18612284    -0.25300
H475        H  0.98133499  0.42445645  0.09594859     0.08600
H476        H  0.02772294  0.42848907  0.24947005     0.12200
H477        H  0.97588714  0.37083139  0.98927127     0.12200
H478        H  0.01404055  0.35864661  0.94815762     0.11900
H479        H  0.05959133  0.36397623  0.09872550     0.12500
H480        H  0.06650469  0.41736265  0.20567981     0.14400
C481        C  0.14730212  0.31759408  0.12182050    -0.05600
C482        C  0.16256848  0.30512649  0.09044873    -0.05500
C483        C  0.16581746  0.27862144  0.09202281    -0.23700
C484        C  0.15313397  0.26409315  0.12416662     0.18500
C485        C  0.13753809  0.27649109  0.15574521     0.15700
C486        C  0.13503307  0.30326364  0.15477820    -0.18700
C487        C  0.12472941  0.26187884  0.02100297    -0.20600
C488        C  0.12752396  0.23526266  0.02186714    -0.13100
C489        C  0.14271127  0.22276589  0.15691273     0.03600
C490        C  0.15549984  0.23735523  0.12482291    -0.25300
H491        H  0.17230621  0.31599616  0.06506613     0.08600
H492        H  0.17783243  0.26943161  0.06756243     0.12200
H493        H  0.12328020  0.31291845  0.17911674     0.12200
H494        H  0.11269647  0.27103858  0.04547042     0.11900
H495        H  0.11736119  0.22437841  0.04671437     0.12500
H496        H  0.16722162  0.22788274  0.10022990     0.14400
C497        C  0.56482605  0.38584739  0.04263123    -0.05600
C498        C  0.55202141  0.37071777  0.07390537    -0.05500
C499        C  0.52541013  0.36908435  0.07408979    -0.23700
C500        C  0.51103137  0.38300604  0.04355950     0.18500
C501        C  0.52356701  0.39787141  0.01111981     0.15700
C502        C  0.55055004  0.39896749  0.01050206    -0.18700
C503        C  0.50878965  0.41176819  0.98071518    -0.20600
C504        C  0.48192787  0.41133313  0.98317400    -0.13100
C505        C  0.46962066  0.39736404  0.01650885     0.03600
C506        C  0.48426941  0.38293543  0.04606635    -0.25300
H507        H  0.56265569  0.36024853  0.09865749     0.08600
H508        H  0.51604141  0.35756015  0.09903587     0.12200
H509        H  0.56032517  0.41062562  0.98620077     0.12200
H510        H  0.51798780  0.42317327  0.95544392     0.11900
H511        H  0.47082771  0.42264436  0.96019225     0.12500
H512        H  0.47475778  0.37207432  0.07178014     0.14400
C513        C  0.39222399  0.32418720  0.06168062    -0.05600
C514        C  0.37792385  0.31289056  0.09561607    -0.05500
C515        C  0.37627826  0.28624334  0.09879867    -0.23700
C516        C  0.38938296  0.27065044  0.06861806     0.18500
C517        C  0.40451132  0.28208241  0.03532911     0.15700
C518        C  0.40569234  0.30872369  0.03195925    -0.18700
C519        C  0.41772856  0.26673399  0.17183663    -0.20600
C520        C  0.41529246  0.24024355  0.17359323    -0.13100
C521        C  0.40001084  0.22860086  0.03938728     0.03600
C522        C  0.38740727  0.24389205  0.07069288    -0.25300
H523        H  0.36736717  0.32466596  0.11870057     0.08600
H524        H  0.36468432  0.27784298  0.12465512     0.12200
H525        H  0.41683421  0.31750987  0.17246264     0.12200
H526        H  0.42946637  0.27523291  0.14625381     0.11900
H527        H  0.42540701  0.22880654  0.14944606     0.12500
H528        H  0.37568992  0.23503493  0.09596038     0.14400
C529        C  0.31516226  0.40561108  0.06929159    -0.05600
C530        C  0.30716297  0.42036216  0.10539663    -0.05500
C531        C  0.28130461  0.42178957  0.11706003    -0.23700
C532        C  0.26298356  0.40819565  0.09321620     0.18500
C533        C  0.27078039  0.39328225  0.05679453     0.15700
C534        C  0.29682506  0.39217659  0.04491759    -0.18700
C535        C  0.25238525  0.37964655  0.03306265    -0.20600
C536        C  0.22652879  0.38091751  0.04512093    -0.13100
C537        C  0.21869031  0.39559099  0.08136464     0.03600
C538        C  0.23702049  0.40915141  0.10538232    -0.25300
H539        H  0.32095286  0.43093886  0.12462134     0.08600
H540        H  0.27568858  0.43331703  0.97838182     0.12200
H541        H  0.30284110  0.38063319  0.18385301     0.12200
H542        H  0.25797008  0.36806448  0.17181405     0.11900
H543        H  0.21267109  0.37003186  0.19325359     0.12500
H544        H  0.23103924  0.42053889  0.13334250     0.14400
C545        C  0.13425544  0.97351926  0.09539021    -0.05600
C546        C  0.11875180  0.98869154  0.06801719    -0.05500
C547        C  0.11709584  0.01507780  0.07409776    -0.23700
C548        C  0.13137400  0.02690507  0.10710447     0.18500
C549        C  0.14672105  0.01185301  0.13545046     0.15700
C550        C  0.14785547  0.98515758  0.12971737    -0.18700
C551        C  0.16083618  0.02385895  0.16867417    -0.20600
C552        C  0.15967700  0.05045379  0.17377786    -0.13100
C553        C  0.14501610  0.06546029  0.14494742     0.03600
C554        C  0.13089315  0.05359124  0.11168247    -0.25300
H555        H  0.10793413  0.98011185  0.04160996     0.08600
H556        H  0.10519392  0.02631665  0.05217340     0.12200
H557        H  0.15979821  0.97358622  0.15108431     0.12200
H558        H  0.17260129  0.01267726  0.19088614     0.11900
H559        H  0.17071417  0.05938474  0.19956792     0.12500
H560        H  0.11953525  0.06517608  0.08938855     0.14400
C561        C  0.06037880  0.89257992  0.08767208    -0.05600
C562        C  0.04484366  0.87731241  0.06097988    -0.05500
C563        C  0.01842250  0.87571334  0.06894959    -0.23700
C564        C  0.00710123  0.88995794  0.10296199     0.18500
C565        C  0.02269181  0.90566686  0.12949241     0.15700
C566        C  0.04923166  0.90659781  0.12203154    -0.18700
C567        C  0.01155381  0.91998268  0.99673963    -0.20600
C568        C  0.98528197  0.91822146  0.17187411    -0.13100
C569        C  0.96961707  0.90260095  0.14598360     0.03600
C570        C  0.98054164  0.88874917  0.11107204    -0.25300
H571        H  0.05321305  0.86634466  0.20104398     0.08600
H572        H  0.00679147  0.86365207  0.21478997     0.12200
H573        H  0.06123073  0.91841183  0.14267977     0.12200
H574        H  0.02322659  0.93208666  0.01738929     0.11900
H575        H  0.97717188  0.92909896  0.03213486     0.12500
H576        H  0.96851956  0.87662462  0.09103836     0.14400
C577        C  0.14227117  0.47493559  0.11314057    -0.05600
C578        C  0.12807254  0.48915508  0.08238753    -0.05500
C579        C  0.12819224  0.51598466  0.08346818    -0.23700
C580        C  0.14286616  0.52900767  0.11484616     0.18500
C581        C  0.15769338  0.51473271  0.14507199     0.15700
C582        C  0.15723067  0.48795812  0.14409007    -0.18700
C583        C  0.17236039  0.52742151  0.00991867    -0.20600
C584        C  0.17152583  0.55399059  0.01283871    -0.13100
C585        C  0.15656919  0.56847015  0.15029848     0.03600
C586        C  0.14267981  0.55594484  0.11721773    -0.25300
H587        H  0.11652427  0.47953398  0.05804724     0.08600
H588        H  0.11681117  0.52653386  0.05981320     0.12200
H589        H  0.16847394  0.47723298  0.00107714     0.12200
H590        H  0.18384531  0.51674315  0.03327191     0.11900
H591        H  0.18245961  0.56329115  0.03838153     0.12500
H592        H  0.13107283  0.56702904  0.09459804     0.14400
C593        C  0.97825886  0.64243882  0.02124121    -0.05600
C594        C  0.98935579  0.62751350  0.05462601    -0.05500
C595        C  0.01601666  0.62488702  0.05737905    -0.23700
C596        C  0.03201821  0.63761848  0.02736649     0.18500
C597        C  0.02091950  0.65283784  0.16063981     0.15700
C598        C  0.99418101  0.65496664  0.15758581    -0.18700
C599        C  0.03673807  0.66564905  0.13063163    -0.20600
C600        C  0.06330597  0.66318872  0.13327183    -0.13100
C601        C  0.07464247  0.64825581  0.99973598     0.03600
C602        C  0.05886600  0.63555870  0.03028164    -0.25300
H603        H  0.97737809  0.61758060  0.07824726     0.08600
H604        H  0.02411808  0.61314109  0.08325077     0.12200
H605        H  0.98575934  0.66655455  0.13176153     0.12200
H606        H  0.02855466  0.67739488  0.10482568     0.11900
H607        H  0.07505822  0.67327313  0.10950317     0.12500
H608        H  0.06743657  0.62400262  0.05598461     0.14400
C609        C  0.13952219  0.81930332  0.04066044    -0.05600
C610        C  0.12538368  0.81064541  0.00445872    -0.05500
C611        C  0.12516784  0.78474054  0.99338651    -0.23700
C612        C  0.13942453  0.76704969  0.01791656     0.18500
C613        C  0.15376564  0.77557721  0.05439207     0.15700
C614        C  0.15361705  0.80162632  0.06567358    -0.18700
C615        C  0.16797156  0.75787979  0.07900495    -0.20600
C616        C  0.16765477  0.73196150  0.06805940    -0.13100
C617        C  0.15353533  0.72333251  0.03185610     0.03600
C618        C  0.13955625  0.74098976  0.00666466    -0.25300
H619        H  0.11424297  0.82393942  0.98488673     0.08600
H620        H  0.11400237  0.77858191  0.96543095     0.12200
H621        H  0.16467871  0.80818247  0.09351060     0.12200
H622        H  0.17911968  0.76403418  0.10698316     0.11900
H623        H  0.17867506  0.71861262  0.08771810     0.12500
H624        H  0.12847031  0.73437866  0.97889199     0.14400
C625        C  0.39446280  0.07167804  0.04209646    -0.05600
C626        C  0.40927054  0.05797201  0.01151411    -0.05500
C627        C  0.41061157  0.03133286  0.01359191    -0.23700
C628        C  0.39674057  0.01795857  0.04574489     0.18500
C629        C  0.38147196  0.03155504  0.07628755     0.15700
C630        C  0.38054545  0.05833996  0.07441285    -0.18700
C631        C  0.36772473  0.01813220  0.10860223    -0.20600
C632        C  0.36962222  0.99150896  0.11133496    -0.13100
C633        C  0.38467641  0.97791513  0.08101617     0.03600
C634        C  0.39798577  0.99122233  0.04799026    -0.25300
H635        H  0.42021311  0.06789944  0.98645235     0.08600
H636        H  0.42235791  0.02118352  0.98987867     0.12200
H637        H  0.36907939  0.06879805  0.09816192     0.12200
H638        H  0.35597407  0.02825807  0.13233415     0.11900
H639        H  0.35917545  0.98150263  0.13692091     0.12500
H640        H  0.40969556  0.98078167  0.02455446     0.14400
C641        C  0.47009458  0.90820749  0.09356186    -0.05600
C642        C  0.48221983  0.92323392  0.06142994    -0.05500
C643        C  0.50885991  0.92535932  0.06034445    -0.23700
C644        C  0.52391340  0.91185101  0.09060931     0.18500
C645        C  0.51199115  0.89704057  0.12375434     0.15700
C646        C  0.48502763  0.89561966  0.12545767    -0.18700
C647        C  0.52732292  0.88342261  0.15371959    -0.20600
C648        C  0.55414396  0.88397372  0.15011680    -0.13100
C649        C  0.56597123  0.89784105  0.11612851     0.03600
C650        C  0.55070709  0.91214841  0.08707919    -0.25300
H651        H  0.47101809  0.93320559  0.03680759     0.08600
H652        H  0.51772991  0.93683727  0.03481292     0.12200
H653        H  0.47574365  0.88397168  0.15034092     0.12200
H654        H  0.51856940  0.87204971  0.17949393     0.11900
H655        H  0.56558056  0.87278454  0.17279196     0.12500
H656        H  0.55971816  0.92300991  0.06085952     0.14400
C657        C  0.21722398  0.89928931  0.05544918    -0.05600
C658        C  0.22918954  0.91385841  0.02243647    -0.05500
C659        C  0.25600374  0.91551423  0.02039280    -0.23700
C660        C  0.27128817  0.90225935  0.05086329     0.18500
C661        C  0.25933897  0.88714428  0.08356384     0.15700
C662        C  0.23251606  0.88582206  0.08567542    -0.18700
C663        C  0.27437528  0.87398742  0.11431517    -0.20600
C664        C  0.30099725  0.87647396  0.11374691    -0.13100
C665        C  0.31314965  0.89152256  0.08166286     0.03600
C666        C  0.29823588  0.90406474  0.04970340    -0.25300
H667        H  0.21777933  0.92440188  0.16547352     0.08600
H668        H  0.26475686  0.92719051  0.16171020     0.12200
H669        H  0.22351716  0.87439925  0.11118292     0.12200
H670        H  0.26549768  0.86231358  0.13957587     0.11900
H671        H  0.31217277  0.86660280  0.13852091     0.12500
H672        H  0.30752730  0.91578499  0.02492899     0.14400
C673        C  0.40984876  0.57395124  0.18021226    -0.05600
C674        C  0.42365054  0.56398683  0.04915808    -0.05500
C675        C  0.42345702  0.53778042  0.05793243    -0.23700
C676        C  0.40889389  0.52130308  0.03184258     0.18500
C677        C  0.39487258  0.53126316  0.99594186     0.15700
C678        C  0.39568555  0.55752285  0.15339669    -0.18700
C679        C  0.38013559  0.51484059  0.13678565    -0.20600
C680        C  0.37944624  0.48871032  0.97951440    -0.13100
C681        C  0.39322292  0.47867058  0.01523319     0.03600
C682        C  0.40792915  0.49508622  0.04130146    -0.25300
H683        H  0.43462429  0.57651731  0.07015837     0.08600
H684        H  0.43430375  0.53047339  0.08556590     0.12200
H685        H  0.38477375  0.56528674  0.12615970     0.12200
H686        H  0.36925451  0.52216080  0.10919946     0.11900
H687        H  0.36799185  0.47637322  0.12562960     0.12500
H688        H  0.41875399  0.48744868  0.06873145     0.14400
C689        C  0.57496169  0.63600786  0.05989087    -0.05600
C690        C  0.55858147  0.62171819  0.08702205    -0.05500
C691        C  0.53213725  0.62191922  0.07986729    -0.23700
C692        C  0.52165151  0.63702326  0.04624186     0.18500
C693        C  0.53802664  0.65136904  0.01852484     0.15700
C694        C  0.56464255  0.65051369  0.02522078    -0.18700
C695        C  0.52745143  0.66640900  0.15147600    -0.20600
C696        C  0.50089401  0.66697706  0.14498703    -0.13100
C697        C  0.48458107  0.65315803  0.17295431     0.03600
C698        C  0.49504273  0.63826943  0.04024663    -0.25300
H699        H  0.56626984  0.61045998  0.11387195     0.08600
H700        H  0.51982993  0.61083792  0.10140402     0.12200
H701        H  0.57726357  0.66169606  0.17100504     0.12200
H702        H  0.53972585  0.67741661  0.12977649     0.11900
H703        H  0.49305341  0.67845410  0.11854493     0.12500
H704        H  0.48243446  0.62743337  0.06169985     0.14400
C705        C  0.23203537  0.64935681  0.17578074    -0.05600
C706        C  0.24341518  0.66439192  0.04166557    -0.05500
C707        C  0.26994909  0.66764963  0.04249008    -0.23700
C708        C  0.28556061  0.65526520  0.01153462     0.18500
C709        C  0.27428910  0.63985992  0.14549881     0.15700
C710        C  0.24750062  0.63727838  0.14412914    -0.18700
C711        C  0.29003286  0.62740789  0.11473037    -0.20600
C712        C  0.31666417  0.63040067  0.11611183    -0.13100
C713        C  0.32796429  0.64542979  0.14884891     0.03600
C714        C  0.31227109  0.65783794  0.01309219    -0.25300
H715        H  0.23167733  0.67402243  0.06601394     0.08600
H716        H  0.27829319  0.67953860  0.06774284     0.12200
H717        H  0.23869270  0.62571802  0.11885801     0.12200
H718        H  0.28174042  0.61552813  0.08941885     0.11900
H719        H  0.32846468  0.62059749  0.09207689     0.12500
H720        H  0.32086549  0.66952463  0.03841538     0.14400
C721        C  0.39989093  0.82169738  0.09351114    -0.05600
C722        C  0.41590960  0.80865255  0.06387474    -0.05500
C723        C  0.41965080  0.78223924  0.06790225    -0.23700
C724        C  0.40689165  0.76843854  0.10094796     0.18500
C725        C  0.39029875  0.78147600  0.13023508     0.15700
C726        C  0.38711110  0.80798987  0.12657292    -0.18700
C727        C  0.37743301  0.76786437  0.16320889    -0.20600
C728        C  0.38163862  0.74169631  0.16821793    -0.13100
C729        C  0.39826434  0.72855838  0.13969810     0.03600
C730        C  0.41052527  0.74191526  0.10550866    -0.25300
H731        H  0.42593435  0.81898162  0.03817212     0.08600
H732        H  0.43234733  0.77259393  0.04501777     0.12200
H733        H  0.37464979  0.81799207  0.14944334     0.12200
H734        H  0.36461687  0.77756632  0.18583769     0.11900
H735        H  0.37178207  0.73165014  0.19444873     0.12500
H736        H  0.42325521  0.73181462  0.08323316     0.14400
O737        O  0.41038145  0.61038898  0.29993620    -0.73300
O738        O  0.40617615  0.68631433  0.27992138    -0.74300
O739        O  0.44688682  0.65083410  0.29572304    -0.62900
O740        O  0.37011168  0.64546717  0.28432204    -0.71300
O741        O  0.36619187  0.65160285  0.18942107    -0.70900
O742        O  0.44226499  0.65648460  0.20086794    -0.62100
O743        O  0.40144421  0.69181177  0.18504283    -0.74600
O744        O  0.40669662  0.61662445  0.20511281    -0.73400
Cu745      Cu  0.40861273  0.64809555  0.28735790     1.04600
Cu746      Cu  0.40407019  0.65440736  0.19747895     1.04300
C747        C  0.40909300  0.60162869  0.33907483     0.92900
C748        C  0.40240602  0.70096776  0.31283103     0.92000
C749        C  0.45660876  0.65384881  0.33380038     0.84200
C750        C  0.35607689  0.64763009  0.31862703     0.90400
O751        O  0.38631978  0.93866457  0.28756084    -0.73300
O752        O  0.39407726  0.86241478  0.29306231    -0.74300
O753        O  0.42881746  0.90408885  0.29407846    -0.62900
O754        O  0.35223925  0.89641738  0.28701080    -0.71300
O755        O  0.35438977  0.89545906  0.21430271    -0.70900
O756        O  0.43101998  0.90325553  0.22136562    -0.62100
O757        O  0.39710686  0.86095921  0.22044439    -0.74600
O758        O  0.38921810  0.93708993  0.21493443    -0.73400
Cu759      Cu  0.39027422  0.90047209  0.29296443     1.04600
Cu760      Cu  0.39298349  0.89910310  0.21524642     1.04300
C761        C  0.38671073  0.94991034  0.25026244     0.92900
C762        C  0.39688202  0.84966985  0.25767507     0.92000
C763        C  0.44198991  0.90498903  0.25865492     0.84200
C764        C  0.34123046  0.89467920  0.24977401     0.90400
O765        O  0.15407024  0.61181307  0.29082228    -0.73300
O766        O  0.15392281  0.68803835  0.31519980    -0.74300
O767        O  0.19251775  0.64968822  0.30410975    -0.62900
O768        O  0.11598299  0.65061949  0.30070000    -0.71300
O769        O  0.11408281  0.64154993  0.20512690    -0.70900
O770        O  0.19127366  0.64371429  0.20959145    -0.62100
O771        O  0.15186469  0.67980060  0.21991956    -0.74600
O772        O  0.15441071  0.60491334  0.19602185    -0.73400
Cu773      Cu  0.15415166  0.65025386  0.30016096     1.04600
Cu774      Cu  0.15279054  0.64214009  0.21006926     1.04300
C775        C  0.15477692  0.59638891  0.32348324     0.92900
C776        C  0.15297575  0.69579490  0.18830785     0.92000
C777        C  0.20398178  0.64723138  0.34081525     0.84200
C778        C  0.10286915  0.64649123  0.16876641     0.90400
O779        O  0.13724054  0.86313912  0.18730950    -0.73300
O780        O  0.13356393  0.93773733  0.21429869    -0.74300
O781        O  0.17435974  0.90310136  0.19368850    -0.62900
O782        O  0.09740571  0.89751099  0.20887537    -0.71300
O783        O  0.10316220  0.89089854  0.28016898    -0.70900
O784        O  0.17919358  0.89312185  0.26396021    -0.62100
O785        O  0.14075229  0.92999527  0.28479911    -0.74600
O786        O  0.14186292  0.85418657  0.25804533    -0.73400
Cu787      Cu  0.13553845  0.90068390  0.19859916     1.04600
Cu788      Cu  0.14144169  0.89175378  0.27419496     1.04300
C789        C  0.13963744  0.84680835  0.21821763     0.92900
C790        C  0.13640582  0.94577782  0.25350158     0.92000
C791        C  0.18891746  0.89852796  0.22657785     0.84200
C792        C  0.08827659  0.89362413  0.24731532     0.90400
O793        O  0.35009010  0.39840097  0.18594340    -0.73300
O794        O  0.42607649  0.39793493  0.15840811    -0.74300
O795        O  0.38932628  0.36058971  0.18264699    -0.62900
O796        O  0.38685462  0.43559696  0.16061523    -0.71300
O797        O  0.39808849  0.44271275  0.22965749    -0.70900
O798        O  0.39458179  0.36715591  0.25400800    -0.62100
O799        O  0.43367028  0.40179443  0.22970801    -0.74600
O800        O  0.35908088  0.40819398  0.25495611    -0.73400
Cu801      Cu  0.38775385  0.39787371  0.16941920     1.04600
Cu802      Cu  0.39663983  0.40522771  0.24450548     1.04300
C803        C  0.34270164  0.40395089  0.22491168     0.92900
C804        C  0.44179268  0.39921754  0.19041927     0.92000
C805        C  0.39199143  0.35196857  0.22157792     0.84200
C806        C  0.39264223  0.45105330  0.19128344     0.90400
O807        O  0.18516521  0.39714786  0.30151637    -0.73300
O808        O  0.11041495  0.39674365  0.33615353    -0.74300
O809        O  0.14852605  0.35855480  0.32199205    -0.62900
O810        O  0.14747769  0.43503817  0.31626525    -0.71300
O811        O  0.13549107  0.43385609  0.24656102    -0.70900
O812        O  0.13956017  0.35676614  0.25088497    -0.62100
O813        O  0.10029568  0.39333052  0.26578430    -0.74600
O814        O  0.17427461  0.39608791  0.23124881    -0.73400
Cu815      Cu  0.14821523  0.39698305  0.32139707     1.04600
Cu816      Cu  0.13695003  0.39505510  0.24623869     1.04300
C817        C  0.19144678  0.39643505  0.26092007     0.92900
C818        C  0.09359174  0.39420702  0.30612241     0.92000
C819        C  0.14480752  0.34560781  0.28714353     0.84200
C820        C  0.14155788  0.44662375  0.28074879     0.90400
O821        O  0.35325487  0.15130620  0.22825012    -0.73300
O822        O  0.42815275  0.14924639  0.25717478    -0.74300
O823        O  0.39172854  0.18886488  0.24223482    -0.62900
O824        O  0.38947392  0.11218549  0.24315045    -0.71300
O825        O  0.39936471  0.11177080  0.17224615    -0.70900
O826        O  0.40153602  0.18812251  0.17130534    -0.62100
O827        O  0.43738813  0.14938363  0.18597083    -0.74600
O828        O  0.36273097  0.15144524  0.32384278    -0.73400
Cu829      Cu  0.39028496  0.15040762  0.24518302     1.04600
Cu830      Cu  0.40049313  0.15010083  0.33589763     1.04300
C831        C  0.34619583  0.15174376  0.18817547     0.92900
C832        C  0.44456629  0.14946432  0.22595478     0.92000
C833        C  0.39747991  0.20056770  0.20664772     0.84200
C834        C  0.39429190  0.09986931  0.20791952     0.90400
O835        O  0.14862458  0.18330980  0.28614511    -0.73300
O836        O  0.14856565  0.10682422  0.28005794    -0.74300
O837        O  0.11082757  0.14528650  0.27188864    -0.62900
O838        O  0.18656849  0.14480444  0.29492083    -0.71300
O839        O  0.17877802  0.14247460  0.19982713    -0.70900
O840        O  0.10360896  0.14343426  0.17704004    -0.62100
O841        O  0.14163240  0.10442275  0.18524016    -0.74600
O842        O  0.14060208  0.18150920  0.19097608    -0.73400
Cu843      Cu  0.14894885  0.14513844  0.28078393     1.04600
Cu844      Cu  0.14092656  0.14290362  0.19077415     1.04300
C845        C  0.14420026  0.19455132  0.32256752     0.92900
C846        C  0.14509500  0.09355389  0.31481068     0.92000
C847        C  0.09531235  0.14456770  0.30440355     0.84200
C848        C  0.19456893  0.14329902  0.33443691     0.90400
O849        O  0.60662256  0.39221615  0.34456984    -0.73300
O850        O  0.68356729  0.39607963  0.35871599    -0.74300
O851        O  0.64808813  0.35682417  0.34051519    -0.62900
O852        O  0.64227735  0.43140386  0.36089224    -0.71300
O853        O  0.64010025  0.42538326  0.26626524    -0.70900
O854        O  0.64248130  0.34867906  0.24474937    -0.62100
O855        O  0.67923093  0.38709575  0.26289502    -0.74600
O856        O  0.60338348  0.38601517  0.24979291    -0.73400
Cu857      Cu  0.64529400  0.39439447  0.34875841     1.04600
Cu858      Cu  0.64114019  0.38661952  0.25849173     1.04300
C859        C  0.59292397  0.38829424  0.21219468     0.92900
C860        C  0.69349023  0.39166051  0.22971528     0.92000
C861        C  0.64608086  0.34085934  0.20541410     0.84200
C862        C  0.64040472  0.44036859  0.23291717     0.90400
O863        O  0.60454260  0.14948067  0.26764066    -0.73300
O864        O  0.68077708  0.14800099  0.27771228    -0.74300
O865        O  0.64264949  0.11234590  0.25235909    -0.62900
O866        O  0.64237411  0.18526697  0.29293834    -0.71300
O867        O  0.63494381  0.17252983  0.19459314    -0.70900
O868        O  0.64267292  0.09970818  0.15519845    -0.62100
O869        O  0.67702134  0.13883593  0.18198787    -0.74600
O870        O  0.60062440  0.13345874  0.16815079    -0.73400
Cu871      Cu  0.64272424  0.14921878  0.27033324     1.04600
Cu872      Cu  0.63871383  0.13565526  0.17737889     1.04300
C873        C  0.59051128  0.14112215  0.13229165     0.92900
C874        C  0.69091476  0.14393341  0.14849422     0.92000
C875        C  0.64296544  0.09447500  0.11426013     0.84200
C876        C  0.63810787  0.19046555  0.16662077     0.90400
O877        O  0.89529171  0.43702787  0.24638886    -0.73300
O878        O  0.89810169  0.36131141  0.26101269    -0.74300
O879        O  0.93584199  0.40055107  0.25097377    -0.62900
O880        O  0.85812382  0.39837883  0.25525280    -0.71300
O881        O  0.85788420  0.39732275  0.18245794    -0.70900
O882        O  0.93393292  0.39268857  0.17957490    -0.62100
O883        O  0.89349003  0.35678422  0.18908505    -0.74600
O884        O  0.89759329  0.43297145  0.17397831    -0.73400
Cu885      Cu  0.89700093  0.39941371  0.25605567     1.04600
Cu886      Cu  0.89581485  0.39469555  0.17882795     1.04300
C887        C  0.89568512  0.44697825  0.20811290     0.92900
C888        C  0.89503696  0.34706438  0.22752306     0.92000
C889        C  0.94705648  0.39671521  0.21410763     0.84200
C890        C  0.84589610  0.39862757  0.21891711     0.90400
O891        O  0.89298202  0.11369399  0.17971019    -0.73300
O892        O  0.89108068  0.19027340  0.16599994    -0.74300
O893        O  0.85348426  0.15072939  0.16890484    -0.62900
O894        O  0.92985264  0.15379760  0.17727485    -0.71300
O895        O  0.93305060  0.15054636  0.27149814    -0.70900
O896        O  0.85663480  0.14462467  0.26371403    -0.62100
O897        O  0.89231681  0.18575573  0.26025029    -0.74600
O898        O  0.89783410  0.11014319  0.27427261    -0.73400
Cu899      Cu  0.89163448  0.15226847  0.17553319     1.04600
Cu900      Cu  0.89495763  0.14766582  0.26493385     1.04300
C901        C  0.89640659  0.09990533  0.14556681     0.92900
C902        C  0.89199709  0.20000536  0.12752133     0.92000
C903        C  0.84300141  0.14657738  0.13181533     0.84200
C904        C  0.94348975  0.15301770  0.14242375     0.90400
O905        O  0.65160114  0.60408879  0.29343192    -0.73300
O906        O  0.64509579  0.68028344  0.28056489    -0.74300
O907        O  0.61062667  0.63840513  0.27493178    -0.62900
O908        O  0.68603043  0.64581770  0.29890933    -0.71300
O909        O  0.69380436  0.64366722  0.22734800    -0.70900
O910        O  0.61851725  0.63637017  0.20337618    -0.62100
O911        O  0.65247584  0.67745139  0.20889301    -0.74600
O912        O  0.65881136  0.60136461  0.22172109    -0.73400
Cu913      Cu  0.64810253  0.64224189  0.28946324     1.04600
Cu914      Cu  0.65632350  0.63948922  0.21292679     1.04300
C915        C  0.65565655  0.59068188  0.25916598     0.92900
C916        C  0.64732261  0.69078715  0.24279467     0.92000
C917        C  0.60267625  0.63674368  0.23539961     0.84200
C918        C  0.70177525  0.64626633  0.26671114     0.90400
O919        O  0.93592964  0.64240383  0.21808340    -0.73300
O920        O  0.85926099  0.64652310  0.20585007    -0.74300
O921        O  0.89592026  0.60714345  0.20601144    -0.62900
O922        O  0.89952386  0.68296820  0.21829477    -0.71300
O923        O  0.90188984  0.68690228  0.31248638    -0.70900
O924        O  0.90195421  0.61047489  0.30072081    -0.62100
O925        O  0.86353663  0.64944481  0.30017794    -0.74600
O926        O  0.94012605  0.64815286  0.31289699    -0.73400
Cu927      Cu  0.89748904  0.64473226  0.21456521     1.04600
Cu928      Cu  0.90200737  0.64893033  0.30403257     1.04300
C929        C  0.95011705  0.64449529  0.18397937     0.92900
C930        C  0.84930188  0.64785926  0.33429716     0.92000
C931        C  0.89875518  0.59677315  0.16844884     0.84200
C932        C  0.90111595  0.69694641  0.35061811     0.90400
O933        O  0.63674634  0.85473308  0.22124474    -0.73300
O934        O  0.64185933  0.93264799  0.22220673    -0.74300
O935        O  0.67603404  0.89088060  0.20603077    -0.62900
O936        O  0.60172261  0.89654819  0.23490767    -0.71300
O937        O  0.60982582  0.89380891  0.30615677    -0.70900
O938        O  0.68574980  0.89153151  0.27683292    -0.62100
O939        O  0.64969559  0.93009547  0.29357580    -0.74600
O940        O  0.64715940  0.85507848  0.29173030    -0.73400
Cu941      Cu  0.63862514  0.89374628  0.21857013     1.04600
Cu942      Cu  0.64826420  0.89259204  0.29445000     1.04300
C943        C  0.64248753  0.84277486  0.25670960     0.92900
C944        C  0.64726530  0.94338732  0.25878714     0.92000
C945        C  0.69268369  0.89047727  0.23652283     0.84200
C946        C  0.59383466  0.89598927  0.27456739     0.90400
O947        O  0.89867628  0.85972381  0.20784338    -0.73300
O948        O  0.89628344  0.93650658  0.21591525    -0.74300
O949        O  0.86043696  0.89717575  0.22772086    -0.62900
O950        O  0.93495385  0.90000114  0.19652134    -0.71300
O951        O  0.92545169  0.90025604  0.29226788    -0.70900
O952        O  0.85022727  0.89980493  0.32390667    -0.62100
O953        O  0.88801720  0.93833948  0.31119246    -0.74600
O954        O  0.88740482  0.86215967  0.30447980    -0.73400
Cu955      Cu  0.89797396  0.89816961  0.21440087     1.04600
Cu956      Cu  0.88745682  0.90020308  0.30549969     1.04300
C957        C  0.89287720  0.84883379  0.33833270     0.92900
C958        C  0.89183277  0.94945231  0.34784497     0.92000
C959        C  0.84356656  0.89865233  0.36429209     0.84200
C960        C  0.94203473  0.90069770  0.32303149     0.90400
C961        C  0.81627577  0.89960351  0.21002294    -0.05600
C962        C  0.80855103  0.91428336  0.24628678    -0.05500
C963        C  0.78279198  0.91541717  0.25879084    -0.23700
C964        C  0.76435880  0.90159252  0.23554040     0.18500
C965        C  0.77195682  0.88679708  0.36554143     0.15700
C966        C  0.79787995  0.88602569  0.35283118    -0.18700
C967        C  0.75347644  0.87305110  0.34222195    -0.20600
C968        C  0.72770144  0.87423115  0.35475640    -0.13100
C969        C  0.72002879  0.88880955  0.22452592     0.03600
C970        C  0.73846450  0.90238976  0.24828908    -0.25300
H971        H  0.82245950  0.92522546  0.26460561     0.08600
H972        H  0.77732217  0.92697206  0.28681240     0.12200
H973        H  0.80379695  0.87466081  0.32480861     0.12200
H974        H  0.75891255  0.86157375  0.31408905     0.11900
H975        H  0.71372801  0.86352208  0.33615802     0.12500
H976        H  0.73258753  0.91387056  0.27619844     0.14400
C977        C  0.89203227  0.82068988  0.33531849    -0.05600
C978        C  0.87753165  0.80911627  0.30207537    -0.05500
C979        C  0.87622094  0.78256446  0.29888843    -0.23700
C980        C  0.88974425  0.76708505  0.32844106     0.18500
C981        C  0.90444795  0.77847157  0.36201846     0.15700
C982        C  0.90539851  0.80523243  0.36538985    -0.18700
C983        C  0.91781406  0.76285794  0.39173720    -0.20600
C984        C  0.91634062  0.73624067  0.38853186    -0.13100
C985        C  0.90206655  0.72490292  0.35487651     0.06800
C986        C  0.88888691  0.74040061  0.32480936    -0.25300
H987        H  0.86697347  0.82063427  0.27863096     0.08600
H988        H  0.86484323  0.77414021  0.27301010     0.12200
H989        H  0.91663635  0.81399648  0.39113348     0.12200
H990        H  0.92914700  0.77122018  0.41772477     0.11900
H991        H  0.92667484  0.72448481  0.41192152     0.12500
H992        H  0.87775118  0.73165205  0.29889749     0.14400
C993        C  0.64532022  0.81467183  0.25825095    -0.05600
C994        C  0.66095265  0.80394666  0.29113906    -0.05500
C995        C  0.66457650  0.77766234  0.29408759    -0.23700
C996        C  0.65236430  0.76141349  0.26458332     0.18500
C997        C  0.63668630  0.77178968  0.23104775     0.15700
C998        C  0.63336086  0.79848543  0.22786300    -0.18700
C999        C  0.62476842  0.75520820  0.20133712    -0.20600
C1000       C  0.62862687  0.72876086  0.20461294    -0.13100
C1001       C  0.64384075  0.71853276  0.23834895     0.03600
C1002       C  0.65556150  0.73491241  0.26832267    -0.25300
H1003       H  0.67067206  0.81597226  0.31468223     0.08600
H1004       H  0.67672802  0.77002787  0.31981650     0.12200
H1005       H  0.62142151  0.80657293  0.20224406     0.12200
H1006       H  0.61273252  0.76269202  0.17534325     0.11900
H1007       H  0.61939916  0.71623697  0.18125723     0.12500
H1008       H  0.66741319  0.72699310  0.29425559     0.14400
C1009       C  0.72932879  0.65016942  0.27495963    -0.05600
C1010       C  0.74353680  0.66671359  0.24793570    -0.05500
C1011       C  0.76969062  0.67052477  0.25537044    -0.23700
C1012       C  0.78220876  0.65726287  0.28922045     0.18500
C1013       C  0.76797987  0.64070097  0.31682225     0.15700
C1014       C  0.74154899  0.63754095  0.30989247    -0.18700
C1015       C  0.78048057  0.62741200  0.18397504    -0.20600
C1016       C  0.80679832  0.63055388  0.19050878    -0.13100
C1017       C  0.82119230  0.64651493  0.32934967     0.03600
C1018       C  0.80877466  0.65986007  0.29537341    -0.25300
H1019       H  0.73433962  0.67677268  0.22108663     0.08600
H1020       H  0.78026158  0.68329146  0.23388740     0.12200
H1021       H  0.73061138  0.62480099  0.16426772     0.12200
H1022       H  0.76988687  0.61470882  0.20553942     0.11900
H1023       H  0.81606518  0.61996524  0.21668056     0.12500
H1024       H  0.81980710  0.67212018  0.27365541     0.14400
C1025       C  0.89921626  0.07195884  0.14923599    -0.05600
C1026       C  0.91450310  0.05898166  0.28507712    -0.05500
C1027       C  0.91678887  0.03245917  0.28643290    -0.23700
C1028       C  0.90333034  0.01837352  0.31805646     0.18500
C1029       C  0.88814441  0.03119082  0.18309367     0.15700
C1030       C  0.88640174  0.05802786  0.18213564    -0.18700
C1031       C  0.87482893  0.01686433  0.21483235    -0.20600
C1032       C  0.87663771  0.99015287  0.21512815    -0.13100
C1033       C  0.89116271  0.97746716  0.34963938     0.03600
C1034       C  0.90448182  0.99163140  0.31790994    -0.25300
H1035       H  0.92470106  0.06941283  0.25968942     0.08600
H1036       H  0.92856317  0.02291715  0.26202062     0.12200
H1037       H  0.87462015  0.06796811  0.20608432     0.12200
H1038       H  0.86316958  0.02630614  0.23950391     0.11900
H1039       H  0.86621546  0.97935590  0.23978398     0.12500
H1040       H  0.91574614  0.98177492  0.29311685     0.14400
C1041       C  0.89869308  0.56873142  0.16567037    -0.05600
C1042       C  0.91363012  0.55588261  0.30085213    -0.05500
C1043       C  0.91574156  0.52920637  0.30203388    -0.23700
C1044       C  0.90255495  0.51508613  0.16753713     0.18500
C1045       C  0.88680109  0.52799844  0.19828133     0.15700
C1046       C  0.88501388  0.55464307  0.19714313    -0.18700
C1047       C  0.87366525  0.51415601  0.23062364    -0.20600
C1048       C  0.87691104  0.48779763  0.23372221    -0.13100
C1049       C  0.89273646  0.47477867  0.20379051     0.03600
C1050       C  0.90513747  0.48839153  0.33676139    -0.25300
H1051       H  0.92434559  0.56650628  0.27635504     0.08600
H1052       H  0.92779391  0.51964717  0.27805321     0.12200
H1053       H  0.87337733  0.56449694  0.22143125     0.12200
H1054       H  0.86148812  0.52379883  0.25433418     0.11900
H1055       H  0.86691443  0.47750555  0.25951499     0.12500
H1056       H  0.91722136  0.47832053  0.31341895     0.14400
C1057       C  0.89408219  0.22782960  0.28874901    -0.05600
C1058       C  0.91052677  0.24169777  0.31610123    -0.05500
C1059       C  0.91452218  0.26776745  0.30890801    -0.23700
C1060       C  0.90156638  0.28046775  0.27495870     0.18500
C1061       C  0.88472054  0.26665443  0.24758572     0.15700
C1062       C  0.88134575  0.24033194  0.25431021    -0.18700
C1063       C  0.87173948  0.27936424  0.21368550    -0.20600
C1064       C  0.87575641  0.30542644  0.20643643    -0.13100
C1065       C  0.89231189  0.31929215  0.23361738     0.03600
C1066       C  0.90504804  0.30675811  0.26807530    -0.25300
H1067       H  0.92076252  0.23220740  0.17580419     0.08600
H1068       H  0.92746986  0.27804944  0.33022817     0.12200
H1069       H  0.86885046  0.22956761  0.23285603     0.12200
H1070       H  0.85878973  0.26907986  0.19237468     0.11900
H1071       H  0.86554397  0.31487463  0.18002242     0.12500
H1072       H  0.91770329  0.31744654  0.28936561     0.14400
C1073       C  0.64329465  0.06760447  0.26681789    -0.05600
C1074       C  0.62839503  0.05948008  0.23117727    -0.05500
C1075       C  0.62726661  0.03353712  0.22008613    -0.23700
C1076       C  0.64102118  0.01536985  0.24457602     0.18500
C1077       C  0.65658533  0.02368976  0.27973813     0.15700
C1078       C  0.65763559  0.04964323  0.12389726    -0.18700
C1079       C  0.67030508  0.00583684  0.13793641    -0.20600
C1080       C  0.66765058  0.97988186  0.29624586    -0.13100
C1081       C  0.65154703  0.97116274  0.26252348     0.03600
C1082       C  0.63881284  0.98902883  0.23575905    -0.25300
H1083       H  0.61685200  0.07307187  0.21298099     0.08600
H1084       H  0.61523381  0.02764500  0.19303746     0.12200
H1085       H  0.66918575  0.05587129  0.15139732     0.12200
H1086       H  0.68238865  0.01190182  0.16482269     0.11900
H1087       H  0.67795500  0.96646474  0.15032342     0.12500
H1088       H  0.62640141  0.98245727  0.20967325     0.14400
C1089       C  0.71883065  0.14568995  0.15298579    -0.05600
C1090       C  0.72946368  0.16055205  0.18649324    -0.05500
C1091       C  0.75597905  0.16394969  0.18880952    -0.23700
C1092       C  0.77221788  0.15194668  0.15830064     0.18500
C1093       C  0.76159617  0.13643550  0.12508004     0.15700
C1094       C  0.73492709  0.13362503  0.12237923    -0.18700
C1095       C  0.77779678  0.12432569  0.26138226    -0.20600
C1096       C  0.80426145  0.12804733  0.26319216    -0.13100
C1097       C  0.81498935  0.14345639  0.12931640     0.03600
C1098       C  0.79886986  0.15519826  0.16039751    -0.25300
H1099       H  0.71718174  0.17009363  0.21014326     0.08600
H1100       H  0.76378833  0.17586395  0.21452546     0.12200
H1101       H  0.72664069  0.12213738  0.26314177     0.12200
H1102       H  0.76997380  0.11231617  0.23580776     0.11900
H1103       H  0.81640624  0.11862259  0.23920406     0.12500
H1104       H  0.80704541  0.16704317  0.18590573     0.14400
C1105       C  0.65530643  0.56260295  0.26226309    -0.05600
C1106       C  0.66858746  0.54953167  0.29552295    -0.05500
C1107       C  0.66783240  0.52275267  0.29784833    -0.23700
C1108       C  0.65310790  0.50879358  0.26776827     0.18500
C1109       C  0.63912839  0.52210070  0.23508913     0.15700
C1110       C  0.64059174  0.54878530  0.23225330    -0.18700
C1111       C  0.62417871  0.50852292  0.20518193    -0.20600
C1112       C  0.62401092  0.48191928  0.20611023    -0.13100
C1113       C  0.63832945  0.46834482  0.23747855     0.03600
C1114       C  0.65241159  0.48184405  0.26909027    -0.25300
H1115       H  0.67980672  0.56002317  0.31925721     0.08600
H1116       H  0.67857118  0.51299344  0.32330467     0.12200
H1117       H  0.63000274  0.55890435  0.20695168     0.12200
H1118       H  0.61327214  0.51845302  0.18011259     0.11900
H1119       H  0.61304665  0.47184047  0.34815099     0.12500
H1120       H  0.66363135  0.47144383  0.29318881     0.14400
C1121       C  0.81779442  0.40115011  0.21799155    -0.05600
C1122       C  0.80644047  0.41586455  0.18462062    -0.05500
C1123       C  0.77985531  0.41770937  0.18131963    -0.23700
C1124       C  0.76412305  0.40432649  0.21070672     0.18500
C1125       C  0.77533463  0.38964043  0.24477241     0.15700
C1126       C  0.80218109  0.38840948  0.24859028    -0.18700
C1127       C  0.75947334  0.37619421  0.27397835    -0.20600
C1128       C  0.73283236  0.37725192  0.26942224    -0.13100
C1129       C  0.72159842  0.39143090  0.23516776     0.03600
C1130       C  0.73738512  0.40503458  0.20601966    -0.25300
H1131       H  0.81822759  0.42593149  0.16086473     0.08600
H1132       H  0.77160946  0.42913407  0.32183212     0.12200
H1133       H  0.81089135  0.37697680  0.27432370     0.12200
H1134       H  0.76765786  0.36486786  0.30031886     0.11900
H1135       H  0.72100009  0.36660017  0.29232335     0.12500
H1136       H  0.72886782  0.41616011  0.34636588     0.14400
C1137       C  0.63718150  0.21739264  0.18090534    -0.05600
C1138       C  0.62237350  0.22482599  0.21738949    -0.05500
C1139       C  0.62144620  0.25047508  0.23039692    -0.23700
C1140       C  0.63550304  0.26903570  0.20732817     0.18500
C1141       C  0.65057905  0.26158442  0.33744483     0.15700
C1142       C  0.65128760  0.23590899  0.32451269    -0.18700
C1143       C  0.66454599  0.27994359  0.31403986    -0.20600
C1144       C  0.66317071  0.30560402  0.32598278    -0.13100
C1145       C  0.64817341  0.31335523  0.19535945     0.03600
C1146       C  0.63455474  0.29494070  0.21967426    -0.25300
H1147       H  0.61119326  0.21085524  0.23542498     0.08600
H1148       H  0.60974041  0.25578427  0.25842597     0.12200
H1149       H  0.66289177  0.23029910  0.29648726     0.12200
H1150       H  0.67620454  0.27452484  0.28600435     0.11900
H1151       H  0.67388397  0.31947519  0.30687926     0.12500
H1152       H  0.62279778  0.30083377  0.24732044     0.14400
C1153       C  0.06755949  0.14502322  0.29698598    -0.05600
C1154       C  0.05678435  0.13117941  0.26233586    -0.05500
C1155       C  0.03018982  0.13020222  0.25739525    -0.23700
C1156       C  0.01412429  0.14348002  0.11989158     0.18500
C1157       C  0.02497079  0.15799581  0.15419540     0.15700
C1158       C  0.05160524  0.15856693  0.32594946    -0.18700
C1159       C  0.00897923  0.17125639  0.18343047    -0.20600
C1160       C  0.98241094  0.16952670  0.17956822    -0.13100
C1161       C  0.97148229  0.15504706  0.14578185     0.03600
C1162       C  0.98740821  0.14231622  0.11564074    -0.25300
H1163       H  0.06890841  0.12055414  0.23985528     0.08600
H1164       H  0.02219591  0.11901581  0.23089471     0.12200
H1165       H  0.05996831  0.16938182  0.18594899     0.12200
H1166       H  0.01700875  0.18250832  0.20982162     0.11900
H1167       H  0.97036480  0.17958949  0.20293247     0.12500
H1168       H  0.97900464  0.13105944  0.08956871     0.14400
C1169       C  0.47205109  0.15079195  0.23566062    -0.05600
C1170       C  0.48774203  0.16648563  0.20963423    -0.05500
C1171       C  0.51389013  0.16825846  0.21804263    -0.23700
C1172       C  0.52484392  0.15384652  0.25197123     0.18500
C1173       C  0.50924100  0.13791677  0.27843399     0.15700
C1174       C  0.48275965  0.13675775  0.27048021    -0.18700
C1175       C  0.52048486  0.12337367  0.14546517    -0.20600
C1176       C  0.54691595  0.12472341  0.15289021    -0.13100
C1177       C  0.56247916  0.14036428  0.29300214     0.03600
C1178       C  0.55124536  0.15489722  0.25934326    -0.25300
H1179       H  0.47968925  0.17754428  0.18284313     0.08600
H1180       H  0.52562836  0.18048090  0.19741361     0.12200
H1181       H  0.47063214  0.12460806  0.29058387     0.12200
H1182       H  0.50883796  0.11113408  0.16620350     0.11900
H1183       H  0.55521034  0.11333391  0.17902232     0.12500
H1184       H  0.56307908  0.16702235  0.23865534     0.14400
C1185       C  0.22222950  0.14216754  0.17671841    -0.05600
C1186       C  0.23129488  0.12782886  0.21250900    -0.05500
C1187       C  0.25748841  0.12649353  0.22132027    -0.23700
C1188       C  0.27496730  0.13988327  0.19493756     0.18500
C1189       C  0.26600701  0.15444017  0.32552593     0.15700
C1190       C  0.23966835  0.15534171  0.31645049    -0.18700
C1191       C  0.28356401  0.16784873  0.29923099    -0.20600
C1192       C  0.30976990  0.16670987  0.30844089    -0.13100
C1193       C  0.31871517  0.15249465  0.17777930     0.03600
C1194       C  0.30123549  0.13911081  0.20425421    -0.25300
H1195       H  0.21809781  0.11741340  0.23344674     0.08600
H1196       H  0.26404340  0.11522218  0.24903751     0.12200
H1197       H  0.23271158  0.16651742  0.28887703     0.12200
H1198       H  0.27704675  0.17912351  0.27149536     0.11900
H1199       H  0.32302502  0.17730093  0.28789315     0.12500
H1200       H  0.30812184  0.12799567  0.23195964     0.14400
C1201       C  0.97529984  0.39729922  0.21015434    -0.05600
C1202       C  0.99022400  0.41328116  0.23675466    -0.05500
C1203       C  0.01664459  0.41575090  0.22899903    -0.23700
C1204       C  0.02855966  0.40192805  0.36170927     0.18500
C1205       C  0.01365750  0.38528651  0.16904449     0.15700
C1206       C  0.98725778  0.38319390  0.17665159    -0.18700
C1207       C  0.02522001  0.37144040  0.30171028    -0.20600
C1208       C  0.05119603  0.37459345  0.29243036    -0.13100
C1209       C  0.06624743  0.39120762  0.31754939     0.03600
C1210       C  0.05496069  0.40455549  0.35278905    -0.25300
H1211       H  0.98133871  0.42442642  0.26263239     0.08600
H1212       H  0.02771753  0.42852972  0.41611589     0.12200
H1213       H  0.97587908  0.37083452  0.15590778     0.12200
H1214       H  0.01402908  0.35865834  0.11477709     0.11900
H1215       H  0.05958982  0.36396938  0.26543215     0.12500
H1216       H  0.06650027  0.41739290  0.37233250     0.14400
C1217       C  0.14729640  0.31760377  0.28849205    -0.05600
C1218       C  0.16254677  0.30513465  0.25709879    -0.05500
C1219       C  0.16579299  0.27862942  0.25866745    -0.23700
C1220       C  0.15312180  0.26410238  0.29082663     0.18500
C1221       C  0.13754305  0.27650184  0.32242858     0.15700
C1222       C  0.13504156  0.30327466  0.32146689    -0.18700
C1223       C  0.12472134  0.26186583  0.18763766    -0.20600
C1224       C  0.12751717  0.23525002  0.18850255    -0.13100
C1225       C  0.14270763  0.22277562  0.32358204     0.03600
C1226       C  0.15548357  0.23736426  0.29147674    -0.25300
H1227       H  0.17227454  0.31600322  0.23170383     0.08600
H1228       H  0.17779577  0.26943821  0.23419018     0.12200
H1229       H  0.12330079  0.31293064  0.34582212     0.12200
H1230       H  0.11268410  0.27102475  0.21209923     0.11900
H1231       H  0.11735102  0.22436490  0.21334513     0.12500
H1232       H  0.16719286  0.22789113  0.26686696     0.14400
C1233       C  0.56482358  0.38585032  0.20927859    -0.05600
C1234       C  0.55201810  0.37071929  0.24054987    -0.05500
C1235       C  0.52540668  0.36908776  0.24073423    -0.23700
C1236       C  0.51102876  0.38301232  0.21020653     0.18500
C1237       C  0.52356519  0.39787925  0.17776962     0.15700
C1238       C  0.55054832  0.39897360  0.17715220    -0.18700
C1239       C  0.50878836  0.41177917  0.14736826    -0.20600
C1240       C  0.48192647  0.41134558  0.14982768    -0.13100
C1241       C  0.46961866  0.39737495  0.18316006     0.03600
C1242       C  0.48426683  0.38294313  0.21271377    -0.25300
H1243       H  0.56265184  0.36024834  0.26530007     0.08600
H1244       H  0.51603728  0.35756246  0.26567858     0.12200
H1245       H  0.56032434  0.41063335  0.15285370     0.12200
H1246       H  0.51798719  0.42318551  0.12209876     0.11900
H1247       H  0.47082657  0.42265913  0.12684871     0.12500
H1248       H  0.47475489  0.37208090  0.23842513     0.14400
C1249       C  0.39222586  0.32419707  0.22832540    -0.05600
C1250       C  0.37792432  0.31289973  0.26225777    -0.05500
C1251       C  0.37627902  0.28625283  0.26543782    -0.23700
C1252       C  0.38938618  0.27066133  0.23525861     0.18500
C1253       C  0.40451625  0.28209404  0.20197274     0.15700
C1254       C  0.40569629  0.30873523  0.19860444    -0.18700
C1255       C  0.41771263  0.26674237  0.33848942    -0.20600
C1256       C  0.41527524  0.24025208  0.34024880    -0.13100
C1257       C  0.40001682  0.22861313  0.20602922     0.03600
C1258       C  0.38741099  0.24390347  0.23733234    -0.25300
H1259       H  0.36736576  0.32467454  0.28534072     0.08600
H1260       H  0.36468365  0.27785156  0.29129189     0.12200
H1261       H  0.41682171  0.31751822  0.33910964     0.12200
H1262       H  0.42944804  0.27523985  0.31290161     0.11900
H1263       H  0.42538651  0.22881422  0.31609909     0.12500
H1264       H  0.37569154  0.23504606  0.26259645     0.14400
C1265       C  0.31516014  0.40561429  0.23595882    -0.05600
C1266       C  0.30716120  0.42036118  0.27206929    -0.05500
C1267       C  0.28130287  0.42178746  0.28373403    -0.23700
C1268       C  0.26298128  0.40819664  0.25988605     0.18500
C1269       C  0.27077760  0.39328722  0.22345927     0.15700
C1270       C  0.29682229  0.39218263  0.21158112    -0.18700
C1271       C  0.25238186  0.37965442  0.19972364    -0.20600
C1272       C  0.22652525  0.38092542  0.21178175    -0.13100
C1273       C  0.21868690  0.39559623  0.24802884     0.03600
C1274       C  0.23701803  0.40915230  0.27205200    -0.25300
H1275       H  0.32095139  0.43093602  0.29129688     0.08600
H1276       H  0.27567879  0.43331399  0.14503161     0.12200
H1277       H  0.30283688  0.38062773  0.35051882     0.12200
H1278       H  0.25796731  0.36805081  0.33848941     0.11900
H1279       H  0.21266806  0.37001541  0.35993090     0.12500
H1280       H  0.23103732  0.42053697  0.30001580     0.14400
C1281       C  0.13424248  0.97352393  0.26205696    -0.05600
C1282       C  0.11875355  0.98869891  0.23466372    -0.05500
C1283       C  0.11710462  0.01508643  0.24073372    -0.23700
C1284       C  0.13137461  0.02691296  0.27375151     0.18500
C1285       C  0.14670710  0.01185919  0.30211755     0.15700
C1286       C  0.14783534  0.98516232  0.29639343    -0.18700
C1287       C  0.16081355  0.02386481  0.33535287    -0.20600
C1288       C  0.15965746  0.05046039  0.34045142    -0.13100
C1289       C  0.14500999  0.06546845  0.31160292     0.03600
C1290       C  0.13089823  0.05359982  0.27832318    -0.25300
H1291       H  0.10794169  0.98012029  0.20824790     0.08600
H1292       H  0.10521358  0.02632671  0.21879430     0.12200
H1293       H  0.15976745  0.97358971  0.31777543     0.12200
H1294       H  0.17256851  0.01268207  0.35757915     0.11900
H1295       H  0.17068656  0.05939058  0.36625272     0.12500
H1296       H  0.11955059  0.06518535  0.25601522     0.14400
C1297       C  0.06036241  0.89257583  0.25433015    -0.05600
C1298       C  0.04482732  0.87731435  0.22762749    -0.05500
C1299       C  0.01840575  0.87571621  0.23559344    -0.23700
C1300       C  0.00708513  0.88995572  0.26961252     0.18500
C1301       C  0.02267660  0.90565835  0.29615276     0.15700
C1302       C  0.04921593  0.90658816  0.28869538    -0.18700
C1303       C  0.01153486  0.91999522  0.16339545    -0.20600
C1304       C  0.98526899  0.91820946  0.33853882    -0.13100
C1305       C  0.96960333  0.90259476  0.31264001     0.03600
C1306       C  0.98052571  0.88874795  0.27772106    -0.25300
H1307       H  0.05322593  0.86633577  0.36771698     0.08600
H1308       H  0.00680392  0.86365091  0.38146393     0.12200
H1309       H  0.06121537  0.91839768  0.30935103     0.12200
H1310       H  0.02320548  0.93210850  0.18403223     0.11900
H1311       H  0.97715089  0.92911763  0.19878161     0.12500
H1312       H  0.96850252  0.87662784  0.25768152     0.14400
C1313       C  0.14226614  0.47494140  0.27979797    -0.05600
C1314       C  0.12805549  0.48916106  0.24906180    -0.05500
C1315       C  0.12817434  0.51599044  0.25014596    -0.23700
C1316       C  0.14285927  0.52901220  0.28151020     0.18500
C1317       C  0.15769809  0.51473642  0.31171844     0.15700
C1318       C  0.15723638  0.48796254  0.31073286    -0.18700
C1319       C  0.17234800  0.52741077  0.17660816    -0.20600
C1320       C  0.17151487  0.55398027  0.17952581    -0.13100
C1321       C  0.15657425  0.56847197  0.31695330     0.03600
C1322       C  0.14267319  0.55594876  0.28388565    -0.25300
H1323       H  0.11649825  0.47954017  0.22473370     0.08600
H1324       H  0.11678425  0.52654046  0.22650482     0.12200
H1325       H  0.16845766  0.47722136  0.16776903     0.12200
H1326       H  0.18382517  0.51673195  0.19997190     0.11900
H1327       H  0.18244260  0.56328028  0.20507730     0.12500
H1328       H  0.13105735  0.56703420  0.26128041     0.14400
C1329       C  0.97824637  0.64243148  0.18793844    -0.05600
C1330       C  0.98934242  0.62749460  0.22130929    -0.05500
C1331       C  0.01600375  0.62486661  0.22406176    -0.23700
C1332       C  0.03200651  0.63760718  0.19406201     0.18500
C1333       C  0.02092925  0.65283681  0.32729861     0.15700
C1334       C  0.99419125  0.65496862  0.32424225    -0.18700
C1335       C  0.03674997  0.66564733  0.29729317    -0.20600
C1336       C  0.06331749  0.66318710  0.29993953    -0.13100
C1337       C  0.07463144  0.64824827  0.16643476     0.03600
C1338       C  0.05885483  0.63554270  0.19697082    -0.25300
H1339       H  0.97736384  0.61755349  0.24491808     0.08600
H1340       H  0.02410434  0.61311132  0.24992187     0.12200
H1341       H  0.98577164  0.66655812  0.29841775     0.12200
H1342       H  0.02856858  0.67739368  0.27148574     0.11900
H1343       H  0.07507144  0.67327171  0.27617363     0.12500
H1344       H  0.06742564  0.62397609  0.22265981     0.14400
C1345       C  0.13950601  0.81930249  0.20733226    -0.05600
C1346       C  0.12536847  0.81064512  0.17112880    -0.05500
C1347       C  0.12515274  0.78474025  0.16005439    -0.23700
C1348       C  0.13940846  0.76704830  0.18458452     0.18500
C1349       C  0.15374835  0.77557516  0.22106175     0.15700
C1350       C  0.15360017  0.80162438  0.23234480    -0.18700
C1351       C  0.16795322  0.75787699  0.24567478    -0.20600
C1352       C  0.16763628  0.73195868  0.23472863    -0.13100
C1353       C  0.15351806  0.72332959  0.19852400     0.03600
C1354       C  0.13954031  0.74098791  0.17333138    -0.25300
H1355       H  0.11422803  0.82393993  0.15155696     0.08600
H1356       H  0.11398816  0.77858238  0.13209724     0.12200
H1357       H  0.16466189  0.80817977  0.26018214     0.12200
H1358       H  0.17910091  0.76403078  0.27365352     0.11900
H1359       H  0.17865612  0.71861001  0.25438802     0.12500
H1360       H  0.12845580  0.73437743  0.14555703     0.14400
C1361       C  0.39445332  0.07169320  0.20874536    -0.05600
C1362       C  0.40925891  0.05798486  0.17816290    -0.05500
C1363       C  0.41059654  0.03134557  0.18024189    -0.23700
C1364       C  0.39672445  0.01797351  0.21239612     0.18500
C1365       C  0.38145892  0.03157256  0.24294011     0.15700
C1366       C  0.38053530  0.05835739  0.24106334    -0.18700
C1367       C  0.36771213  0.01815238  0.27525837    -0.20600
C1368       C  0.36960630  0.99152906  0.27799281    -0.13100
C1369       C  0.38465640  0.97793246  0.24767159     0.03600
C1370       C  0.39796594  0.99123717  0.21464261    -0.25300
H1371       H  0.42020260  0.06791045  0.15310080     0.08600
H1372       H  0.42234128  0.02119436  0.15652846     0.12200
H1373       H  0.36907132  0.06881731  0.26481333     0.12200
H1374       H  0.35596425  0.02828060  0.29899208     0.11900
H1375       H  0.35916012  0.98152468  0.30358174     0.12500
H1376       H  0.40967332  0.98079446  0.19120561     0.14400
C1377       C  0.47006783  0.90822371  0.26021810    -0.05600
C1378       C  0.48219420  0.92325694  0.22809701    -0.05500
C1379       C  0.50883445  0.92538169  0.22701596    -0.23700
C1380       C  0.52388618  0.91186577  0.25727383     0.18500
C1381       C  0.51196215  0.89704773  0.29040687     0.15700
C1382       C  0.48499900  0.89562755  0.29210625    -0.18700
C1383       C  0.52729171  0.88342164  0.32036422    -0.20600
C1384       C  0.55411273  0.88397205  0.31676493    -0.13100
C1385       C  0.56594168  0.89784659  0.28278742     0.03600
C1386       C  0.55067992  0.91216262  0.25374716    -0.25300
H1387       H  0.47099336  0.93323478  0.20348047     0.08600
H1388       H  0.51770585  0.93686473  0.20149331     0.12200
H1389       H  0.47571365  0.88397464  0.31698157     0.12200
H1390       H  0.51853643  0.87204380  0.34613047     0.11900
H1391       H  0.56554807  0.87277749  0.33943393     0.12500
H1392       H  0.55969282  0.92302966  0.22753631     0.14400
C1393       C  0.21720293  0.89929655  0.22213324    -0.05600
C1394       C  0.22916546  0.91387728  0.18913326    -0.05500
C1395       C  0.25597889  0.91553773  0.18709039    -0.23700
C1396       C  0.27126509  0.90227571  0.21754855     0.18500
C1397       C  0.25931887  0.88714822  0.25023528     0.15700
C1398       C  0.23249635  0.88582188  0.25234716    -0.18700
C1399       C  0.27435765  0.87398316  0.28097295    -0.20600
C1400       C  0.30097916  0.87647368  0.28040461    -0.13100
C1401       C  0.31312774  0.89153456  0.24833359     0.03600
C1402       C  0.29821185  0.90408548  0.21638831    -0.25300
H1403       H  0.21779210  0.92439820  0.33213502     0.08600
H1404       H  0.26476941  0.92718856  0.32837326     0.12200
H1405       H  0.22349898  0.87439031  0.27784404     0.12200
H1406       H  0.26548247  0.86230060  0.30622361     0.11900
H1407       H  0.31215723  0.86659589  0.30516781     0.12500
H1408       H  0.30750099  0.91581505  0.19162422     0.14400
C1409       C  0.40984376  0.57396601  0.34684636    -0.05600
C1410       C  0.42365899  0.56399088  0.21583468    -0.05500
C1411       C  0.42346403  0.53778432  0.22460784    -0.23700
C1412       C  0.40889850  0.52130875  0.19851874     0.18500
C1413       C  0.39487697  0.53127071  0.16261954     0.15700
C1414       C  0.39567265  0.55754030  0.32003608    -0.18700
C1415       C  0.38011446  0.51485861  0.30342864    -0.20600
C1416       C  0.37944556  0.48872070  0.14619056    -0.13100
C1417       C  0.39322195  0.47867908  0.18190780     0.03600
C1418       C  0.40793083  0.49509210  0.20797643    -0.25300
H1419       H  0.43463366  0.57652043  0.23683447     0.08600
H1420       H  0.43431151  0.53047601  0.25223960     0.12200
H1421       H  0.38475778  0.56530666  0.29280528     0.12200
H1422       H  0.36922942  0.52218044  0.27584776     0.11900
H1423       H  0.36796697  0.47639128  0.29227552     0.12500
H1424       H  0.41875584  0.48745258  0.23540524     0.14400
C1425       C  0.57496724  0.63601400  0.22656090    -0.05600
C1426       C  0.55858663  0.62173518  0.25370853    -0.05500
C1427       C  0.53214202  0.62193732  0.24655836    -0.23700
C1428       C  0.52165612  0.63703169  0.21292036     0.18500
C1429       C  0.53803162  0.65136548  0.18518548     0.15700
C1430       C  0.56464782  0.65050916  0.19187782    -0.18700
C1431       C  0.52744782  0.66644192  0.31813412    -0.20600
C1432       C  0.50089047  0.66700774  0.31164334    -0.13100
C1433       C  0.48457792  0.65318972  0.33961313     0.03600
C1434       C  0.49504695  0.63828034  0.20693000    -0.25300
H1435       H  0.56627509  0.61048492  0.28056833     0.08600
H1436       H  0.51983432  0.61086493  0.26810874     0.12200
H1437       H  0.57726079  0.66172825  0.33766175     0.12200
H1438       H  0.53972220  0.67744787  0.29643205     0.11900
H1439       H  0.49304970  0.67848134  0.28519661     0.12500
H1440       H  0.48243857  0.62745316  0.22839655     0.14400
C1441       C  0.23204139  0.64935066  0.34244860    -0.05600
C1442       C  0.24340867  0.66439118  0.20833502    -0.05500
C1443       C  0.26994307  0.66764685  0.20916790    -0.23700
C1444       C  0.28555687  0.65526579  0.17821180     0.18500
C1445       C  0.27429317  0.63985464  0.31216055     0.15700
C1446       C  0.24750521  0.63726919  0.31079848    -0.18700
C1447       C  0.29003648  0.62740038  0.28139373    -0.20600
C1448       C  0.31666739  0.63039834  0.28276762    -0.13100
C1449       C  0.32796658  0.64543545  0.31549469     0.03600
C1450       C  0.31226807  0.65783622  0.17977738    -0.25300
H1451       H  0.23166994  0.67401789  0.23268602     0.08600
H1452       H  0.27828559  0.67953163  0.23442805     0.12200
H1453       H  0.23869658  0.62570462  0.28553370     0.12200
H1454       H  0.28174397  0.61551525  0.25608975     0.11900
H1455       H  0.32846833  0.62059320  0.25873546     0.12500
H1456       H  0.32086114  0.66951915  0.20510734     0.14400
C1457       C  0.39986987  0.82171551  0.26017235    -0.05600
C1458       C  0.41590766  0.80867629  0.23055906    -0.05500
C1459       C  0.41965546  0.78226421  0.23459088    -0.23700
C1460       C  0.40688398  0.76845908  0.26761722     0.18500
C1461       C  0.39027084  0.78149055  0.29687910     0.15700
C1462       C  0.38707642  0.80800366  0.29321332    -0.18700
C1463       C  0.37739327  0.76787386  0.32983366    -0.20600
C1464       C  0.38160606  0.74170697  0.33484836    -0.13100
C1465       C  0.39825112  0.72857549  0.30635280     0.03600
C1466       C  0.41052475  0.74193707  0.27218267    -0.25300
H1467       H  0.42594292  0.81900938  0.20487260     0.08600
H1468       H  0.43236680  0.77262317  0.21172519     0.12200
H1469       H  0.37460094  0.81800213  0.31606615     0.12200
H1470       H  0.36456224  0.77757092  0.35244395     0.11900
H1471       H  0.37174061  0.73165672  0.36106411     0.12500
H1472       H  0.42326943  0.73184090  0.24992564     0.14400
O1473       O  0.41038705  0.61039093  0.46660185    -0.73300
O1474       O  0.40616495  0.68631543  0.44658311    -0.74300
O1475       O  0.44688391  0.65084352  0.46238011    -0.62900
O1476       O  0.37010746  0.64546163  0.45099152    -0.71300
O1477       O  0.36619141  0.65161287  0.35606638    -0.70900
O1478       O  0.44226045  0.65650682  0.36752142    -0.62100
O1479       O  0.40143491  0.69182862  0.35169761    -0.74600
O1480       O  0.40669728  0.61663873  0.37175474    -0.73400
Cu1481     Cu  0.40860921  0.64809713  0.45402101     1.04600
Cu1482     Cu  0.40406698  0.65442302  0.36412778     1.04300
C1483       C  0.40910281  0.60163103  0.50574153     0.92900
C1484       C  0.40239758  0.70096864  0.47949412     0.92000
C1485       C  0.45660702  0.65385902  0.50045647     0.84200
C1486       C  0.35607390  0.64762449  0.48529836     0.90400
O1487       O  0.38632887  0.93866807  0.45423241    -0.73300
O1488       O  0.39408888  0.86241869  0.45973204    -0.74300
O1489       O  0.42882693  0.90409397  0.46074684    -0.62900
O1490       O  0.35224999  0.89641962  0.45368135    -0.71300
O1491       O  0.35440023  0.89546374  0.38097283    -0.70900
O1492       O  0.43102789  0.90325889  0.38803377    -0.62100
O1493       O  0.39711466  0.86096308  0.38711373    -0.74600
O1494       O  0.38922788  0.93709443  0.38160604    -0.73400
Cu1495     Cu  0.39028445  0.90047571  0.45963490     1.04600
Cu1496     Cu  0.39299262  0.89910722  0.38191656     1.04300
C1497       C  0.38672007  0.94991446  0.41693456     0.92900
C1498       C  0.39689057  0.84967342  0.42434435     0.92000
C1499       C  0.44199826  0.90499381  0.42532214     0.84200
C1500       C  0.34124139  0.89468229  0.41644418     0.90400
O1501       O  0.15407248  0.61180786  0.45749060    -0.73300
O1502       O  0.15391203  0.68803483  0.48187051    -0.74300
O1503       O  0.19251369  0.64968865  0.47078577    -0.62900
O1504       O  0.11597914  0.65060889  0.46736382    -0.71300
O1505       O  0.11409056  0.64154425  0.37180101    -0.70900
O1506       O  0.19128183  0.64370603  0.37626335    -0.62100
O1507       O  0.15187433  0.67979119  0.38660595    -0.74600
O1508       O  0.15441785  0.60490915  0.36268611    -0.73400
Cu1509     Cu  0.15414758  0.65024921  0.46683101     1.04600
Cu1510     Cu  0.15279881  0.64213292  0.37674385     1.04300
C1511       C  0.15478022  0.59638289  0.49015046     0.92900
C1512       C  0.15298638  0.69578798  0.35499853     0.92000
C1513       C  0.20397662  0.64723187  0.50749237     0.84200
C1514       C  0.10287784  0.64648953  0.33544101     0.90400
O1515       O  0.13725845  0.86312808  0.35398273    -0.73300
O1516       O  0.13357306  0.93772657  0.38096332    -0.74300
O1517       O  0.17437278  0.90309492  0.36035189    -0.62900
O1518       O  0.09742122  0.89749619  0.37554533    -0.71300
O1519       O  0.10317961  0.89088721  0.44683990    -0.70900
O1520       O  0.17920877  0.89311724  0.43062393    -0.62100
O1521       O  0.14076468  0.92998596  0.45146373    -0.74600
O1522       O  0.14188187  0.85417917  0.42471994    -0.73400
Cu1523     Cu  0.13555240  0.90067295  0.36526646     1.04600
Cu1524     Cu  0.14145802  0.89174573  0.44086317     1.04300
C1525       C  0.13965564  0.84679917  0.38489378     0.92900
C1526       C  0.13641428  0.94576730  0.42016630     0.92000
C1527       C  0.18893131  0.89852341  0.39324060     0.84200
C1528       C  0.08829342  0.89361110  0.41398658     0.90400
O1529       O  0.35008206  0.39840793  0.35259358    -0.73300
O1530       O  0.42606756  0.39795074  0.32504887    -0.74300
O1531       O  0.38932254  0.36060124  0.34929865    -0.62900
O1532       O  0.38683978  0.43560950  0.32725315    -0.71300
O1533       O  0.39807769  0.44272853  0.39629219    -0.70900
O1534       O  0.39457773  0.36717136  0.42065851    -0.62100
O1535       O  0.43366350  0.40181248  0.39634768    -0.74600
O1536       O  0.35907443  0.40820772  0.42160301    -0.73400
Cu1537     Cu  0.38774503  0.39788524  0.33606422     1.04600
Cu1538     Cu  0.39663292  0.40524375  0.41114815     1.04300
C1539       C  0.34269454  0.40395962  0.39156164     0.92900
C1540       C  0.44178487  0.39923506  0.35705831     0.92000
C1541       C  0.39198807  0.35198185  0.38823094     0.84200
C1542       C  0.39262819  0.45106768  0.35791832     0.90400
O1543       O  0.18516069  0.39713931  0.46818571    -0.73300
O1544       O  0.11040801  0.39673609  0.50281405    -0.74300
O1545       O  0.14852035  0.35854632  0.48866298    -0.62900
O1546       O  0.14747386  0.43503081  0.48293014    -0.71300
O1547       O  0.13549393  0.43384761  0.41322237    -0.70900
O1548       O  0.13955546  0.35675471  0.41755598    -0.62100
O1549       O  0.10029358  0.39332481  0.43244235    -0.74600
O1550       O  0.17427211  0.39607447  0.39791751    -0.73400
Cu1551     Cu  0.14820972  0.39697508  0.48806386     1.04600
Cu1552     Cu  0.13694835  0.39504525  0.41290375     1.04300
C1553       C  0.19144322  0.39642401  0.42758986     0.92900
C1554       C  0.09358678  0.39420068  0.47277892     0.92000
C1555       C  0.14480271  0.34559763  0.45381615     0.84200
C1556       C  0.14155943  0.44661606  0.44741058     0.90400
O1557       O  0.35325083  0.15130730  0.39491891    -0.73300
O1558       O  0.42815056  0.14925959  0.42384378    -0.74300
O1559       O  0.39171913  0.18887369  0.40890185    -0.62900
O1560       O  0.38947678  0.11219215  0.40982107    -0.71300
O1561       O  0.39936778  0.11177682  0.33891694    -0.70900
O1562       O  0.40152597  0.18813020  0.33797237    -0.62100
O1563       O  0.43738628  0.14939680  0.35264016    -0.74600
O1564       O  0.36273008  0.15145195  0.49050877    -0.73400
Cu1565     Cu  0.39028180  0.15041504  0.41185189     1.04600
Cu1566     Cu  0.40049220  0.15010367  0.50255842     1.04300
C1567       C  0.34619188  0.15174262  0.35484403     0.92900
C1568       C  0.44456450  0.14947846  0.39262434     0.92000
C1569       C  0.39746849  0.20057643  0.37331355     0.84200
C1570       C  0.39429605  0.09987538  0.37459102     0.90400
O1571       O  0.14863596  0.18329724  0.45282097    -0.73300
O1572       O  0.14856883  0.10680988  0.44673281    -0.74300
O1573       O  0.11083641  0.14527562  0.43855640    -0.62900
O1574       O  0.18657419  0.14478700  0.46160075    -0.71300
O1575       O  0.17877154  0.14248303  0.36648902    -0.70900
O1576       O  0.10360239  0.14344367  0.34370010    -0.62100
O1577       O  0.14162614  0.10443107  0.35189760    -0.74600
O1578       O  0.14059596  0.18151768  0.35764096    -0.73400
Cu1579     Cu  0.14895642  0.14512459  0.44745865     1.04600
Cu1580     Cu  0.14092013  0.14291224  0.35743504     1.04300
C1581       C  0.14420994  0.19453846  0.48924333     0.92900
C1582       C  0.14509541  0.09354003  0.48148546     0.92000
C1583       C  0.09531961  0.14455598  0.47106881     0.84200
C1584       C  0.19457334  0.14328196  0.50111744     0.90400
O1585       O  0.60662593  0.39222455  0.51124791    -0.73300
O1586       O  0.68356793  0.39607537  0.52539478    -0.74300
O1587       O  0.64808315  0.35682832  0.50719400    -0.62900
O1588       O  0.64228643  0.43140581  0.52757073    -0.71300
O1589       O  0.64008871  0.42540171  0.43292504    -0.70900
O1590       O  0.64247129  0.34869663  0.41140273    -0.62100
O1591       O  0.67922047  0.38711180  0.42956361    -0.74600
O1592       O  0.60337289  0.38603288  0.41644046    -0.73400
Cu1593     Cu  0.64529619  0.39439719  0.51543722     1.04600
Cu1594     Cu  0.64112928  0.38663693  0.42514939     1.04300
C1595       C  0.59291658  0.38831125  0.37883932     0.92900
C1596       C  0.69348293  0.39167708  0.39638795     0.92000
C1597       C  0.64607517  0.34087819  0.37206752     0.84200
C1598       C  0.64039522  0.44038717  0.39957673     0.90400
O1599       O  0.60454438  0.14948585  0.43430193    -0.73300
O1600       O  0.68077970  0.14801847  0.44437777    -0.74300
O1601       O  0.64265815  0.11235797  0.41902210    -0.62900
O1602       O  0.64236884  0.18527657  0.45960476    -0.71300
O1603       O  0.63494279  0.17254924  0.36125180    -0.70900
O1604       O  0.64265588  0.09972425  0.32186521    -0.62100
O1605       O  0.67701320  0.13884653  0.34864769    -0.74600
O1606       O  0.60061603  0.13348412  0.33481903    -0.73400
Cu1607     Cu  0.64272626  0.14922991  0.43699711     1.04600
Cu1608     Cu  0.63870538  0.13567321  0.34404234     1.04300
C1609       C  0.59050298  0.14114901  0.29896105     0.92900
C1610       C  0.69090689  0.14394030  0.31515285     0.92000
C1611       C  0.64294447  0.09448982  0.28092726     0.84200
C1612       C  0.63810840  0.19048352  0.33327689     0.90400
O1613       O  0.89528513  0.43704096  0.41307034    -0.73300
O1614       O  0.89810480  0.36132416  0.42770256    -0.74300
O1615       O  0.93583971  0.40056973  0.41765670    -0.62900
O1616       O  0.85812115  0.39838772  0.42194392    -0.71300
O1617       O  0.85787881  0.39732970  0.34914942    -0.70900
O1618       O  0.93392998  0.39270330  0.34625920    -0.62100
O1619       O  0.89349182  0.35679541  0.35577589    -0.74600
O1620       O  0.89758629  0.43298058  0.34066025    -0.73400
Cu1621     Cu  0.89699868  0.39942714  0.42274227     1.04600
Cu1622     Cu  0.89581107  0.39470590  0.34551547     1.04300
C1623       C  0.89567903  0.44698901  0.37479264     0.92900
C1624       C  0.89504189  0.34707601  0.39421373     0.92000
C1625       C  0.94705386  0.39673341  0.38079046     0.84200
C1626       C  0.84589182  0.39863488  0.38560997     0.90400
O1627       O  0.89297878  0.11369826  0.34638633    -0.73300
O1628       O  0.89107015  0.19027507  0.33266080    -0.74300
O1629       O  0.85347676  0.15072879  0.33557249    -0.62900
O1630       O  0.92984560  0.15380519  0.34394115    -0.71300
O1631       O  0.93305768  0.15054335  0.43815005    -0.70900
O1632       O  0.85663932  0.14463872  0.43037260    -0.62100
O1633       O  0.89233073  0.18576299  0.42691252    -0.74600
O1634       O  0.89783338  0.11014852  0.44092049    -0.73400
Cu1635     Cu  0.89162721  0.15227181  0.34220104     1.04600
Cu1636     Cu  0.89496359  0.14767197  0.43158859     1.04300
C1637       C  0.89640604  0.09990743  0.31224654     0.92900
C1638       C  0.89198632  0.20000427  0.29418037     0.92000
C1639       C  0.84299435  0.14657321  0.29848377     0.84200
C1640       C  0.94348239  0.15302523  0.30908967     0.90400
O1641       O  0.65159724  0.60410896  0.46007563    -0.73300
O1642       O  0.64510051  0.68030490  0.44722338    -0.74300
O1643       O  0.61062614  0.63843252  0.44158853    -0.62900
O1644       O  0.68603192  0.64583378  0.46555614    -0.71300
O1645       O  0.69380214  0.64368637  0.39399347    -0.70900
O1646       O  0.61851265  0.63639979  0.37003140    -0.62100
O1647       O  0.65247649  0.67747499  0.37554993    -0.74600
O1648       O  0.65880374  0.60138730  0.38836359    -0.73400
Cu1649     Cu  0.64810314  0.64226286  0.45611466     1.04600
Cu1650     Cu  0.65631988  0.63951300  0.37957665     1.04300
C1651       C  0.65565000  0.59070308  0.42580737     0.92900
C1652       C  0.64732623  0.69080969  0.40945387     0.92000
C1653       C  0.60267341  0.63677476  0.40205728     0.84200
C1654       C  0.70177523  0.64628315  0.43335577     0.90400
O1655       O  0.93593802  0.64241249  0.38473816    -0.73300
O1656       O  0.85926945  0.64652200  0.37250276    -0.74300
O1657       O  0.89593437  0.60714892  0.37266493    -0.62900
O1658       O  0.89952648  0.68297246  0.38494898    -0.71300
O1659       O  0.90189804  0.68690561  0.47915293    -0.70900
O1660       O  0.90194438  0.61047674  0.46738038    -0.62100
O1661       O  0.86353603  0.64945692  0.46683690    -0.74600
O1662       O  0.94012338  0.64814606  0.47955936    -0.73400
Cu1663     Cu  0.89749751  0.64473665  0.38121890     1.04600
Cu1664     Cu  0.90200611  0.64893309  0.47069446     1.04300
C1665       C  0.95012568  0.64450337  0.35063443     0.92900
C1666       C  0.84930043  0.64787441  0.50095534     0.92000
C1667       C  0.89877086  0.59677840  0.33510304     0.84200
C1668       C  0.90112819  0.69694837  0.51728624     0.90400
O1669       O  0.63675538  0.85475278  0.38790946    -0.73300
O1670       O  0.64186693  0.93266508  0.38887397    -0.74300
O1671       O  0.67604035  0.89090086  0.37270356    -0.62900
O1672       O  0.60173049  0.89656486  0.40156764    -0.71300
O1673       O  0.60983105  0.89382786  0.47281820    -0.70900
O1674       O  0.68575290  0.89154886  0.44350781    -0.62100
O1675       O  0.64970249  0.93011322  0.46024377    -0.74600
O1676       O  0.64716290  0.85509785  0.45839777    -0.73400
Cu1677     Cu  0.63863278  0.89376486  0.38523600     1.04600
Cu1678     Cu  0.64826859  0.89261055  0.46111814     1.04300
C1679       C  0.64249418  0.84279476  0.42337547     0.92900
C1680       C  0.64727422  0.94340407  0.42545385     0.92000
C1681       C  0.69268785  0.89049610  0.40319860     0.84200
C1682       C  0.59384139  0.89600567  0.44122655     0.90400
O1683       O  0.89866344  0.85972517  0.37451059    -0.73300
O1684       O  0.89628752  0.93650745  0.38259283    -0.74300
O1685       O  0.86043647  0.89718370  0.39440625    -0.62900
O1686       O  0.93494560  0.89999426  0.36318269    -0.71300
O1687       O  0.92547316  0.90026069  0.45894216    -0.70900
O1688       O  0.85024796  0.89980575  0.49057471    -0.62100
O1689       O  0.88803634  0.93834235  0.47785470    -0.74600
O1690       O  0.88742989  0.86216264  0.47116004    -0.73400
Cu1691     Cu  0.89796982  0.89817029  0.38107364     1.04600
Cu1692     Cu  0.88747858  0.90020579  0.47217095     1.04300
C1693       C  0.89290162  0.84883866  0.50501552     0.92900
C1694       C  0.89185075  0.94945785  0.51450494     0.92000
C1695       C  0.84358600  0.89865476  0.53095969     0.84200
C1696       C  0.94205567  0.90070501  0.48970649     0.90400
C1697       C  0.81627594  0.89961715  0.37671776    -0.05600
C1698       C  0.80855298  0.91429243  0.41298789    -0.05500
C1699       C  0.78279395  0.91542622  0.42549118    -0.23700
C1700       C  0.76436067  0.90160613  0.40223275     0.18500
C1701       C  0.77197579  0.88679267  0.53220612     0.15700
C1702       C  0.79789968  0.88602257  0.51949761    -0.18700
C1703       C  0.75349587  0.87304669  0.50888470    -0.20600
C1704       C  0.72771979  0.87422813  0.52141461    -0.13100
C1705       C  0.72003178  0.88882821  0.39120575     0.03600
C1706       C  0.73846656  0.90240334  0.41497850    -0.25300
H1707       H  0.82246234  0.92523126  0.43131121     0.08600
H1708       H  0.77732398  0.92697788  0.45351608     0.12200
H1709       H  0.80381794  0.87465795  0.49147503     0.12200
H1710       H  0.75893303  0.86156948  0.48075231     0.11900
H1711       H  0.71374665  0.86352064  0.50281228     0.12500
H1712       H  0.73258896  0.91388058  0.44289159     0.14400
C1713       C  0.89205570  0.82069443  0.50200413    -0.05600
C1714       C  0.87755228  0.80912230  0.46876276    -0.05500
C1715       C  0.87623981  0.78257096  0.46557339    -0.23700
C1716       C  0.88976418  0.76708985  0.49512127     0.18500
C1717       C  0.90446994  0.77847419  0.52869868     0.15700
C1718       C  0.90542237  0.80523536  0.53207288    -0.18700
C1719       C  0.91783570  0.76285765  0.55841389    -0.20600
C1720       C  0.91636007  0.73624019  0.55520448    -0.13100
C1721       C  0.90208425  0.72490504  0.52154826     0.06800
C1722       C  0.88890500  0.74040569  0.49148540    -0.25300
H1723       H  0.86699320  0.82064131  0.44532169     0.08600
H1724       H  0.86485990  0.77414835  0.43969552     0.12200
H1725       H  0.91666164  0.81399831  0.55781644     0.12200
H1726       H  0.92916946  0.77121771  0.58440223     0.11900
H1727       H  0.92669367  0.72448220  0.57859190     0.12500
H1728       H  0.87776718  0.73165949  0.46557364     0.14400
C1729       C  0.64532686  0.81469244  0.42491640    -0.05600
C1730       C  0.66095482  0.80396664  0.45781022    -0.05500
C1731       C  0.66457709  0.77768229  0.46075944    -0.23700
C1732       C  0.65236782  0.76143445  0.43125007     0.18500
C1733       C  0.63669483  0.77181180  0.39770805     0.15700
C1734       C  0.63337113  0.79850740  0.39452289    -0.18700
C1735       C  0.62477981  0.75523151  0.36799252    -0.20600
C1736       C  0.62863647  0.72878426  0.37126882    -0.13100
C1737       C  0.64384554  0.71855511  0.40501043     0.03600
C1738       C  0.65556293  0.73493335  0.43498996    -0.25300
H1739       H  0.67067157  0.81599163  0.48135729     0.08600
H1740       H  0.67672509  0.77004708  0.48649293     0.12200
H1741       H  0.62143515  0.80659587  0.36889963     0.12200
H1742       H  0.61274730  0.76271621  0.34199407     0.11900
H1743       H  0.61941113  0.71626115  0.34790923     0.12500
H1744       H  0.66741106  0.72701298  0.46092712     0.14400
C1745       C  0.72932945  0.65018452  0.44160159    -0.05600
C1746       C  0.74353978  0.66672237  0.41456951    -0.05500
C1747       C  0.76969389  0.67053283  0.42200447    -0.23700
C1748       C  0.78220978  0.65727669  0.45586368     0.18500
C1749       C  0.76797851  0.64072123  0.48347292     0.15700
C1750       C  0.74154770  0.63756172  0.47654228    -0.18700
C1751       C  0.78048924  0.62740888  0.35062727    -0.20600
C1752       C  0.80680738  0.63054927  0.35715922    -0.13100
C1753       C  0.82119071  0.64653392  0.49600549     0.03600
C1754       C  0.80877578  0.65987340  0.46201912    -0.25300
H1755       H  0.73434431  0.67677738  0.38771446     0.08600
H1756       H  0.78026648  0.68329453  0.40051564     0.12200
H1757       H  0.73061886  0.62480228  0.33092476     0.12200
H1758       H  0.76989537  0.61470518  0.37219107     0.11900
H1759       H  0.81607461  0.61995951  0.38332938     0.12500
H1760       H  0.81981006  0.67212814  0.44029564     0.14400
C1761       C  0.89922063  0.07196185  0.31592308    -0.05600
C1762       C  0.91451119  0.05898798  0.45172916    -0.05500
C1763       C  0.91680246  0.03246590  0.45308940    -0.23700
C1764       C  0.90334217  0.01837894  0.48470925     0.18500
C1765       C  0.88814897  0.03119385  0.34978038     0.15700
C1766       C  0.88640335  0.05803067  0.34881910    -0.18700
C1767       C  0.87482951  0.01686692  0.38151326    -0.20600
C1768       C  0.87663877  0.99015545  0.38180862    -0.13100
C1769       C  0.89117744  0.97747241  0.51629399     0.03600
C1770       C  0.90449906  0.99163700  0.48456802    -0.25300
H1771       H  0.92471149  0.06942045  0.42634566     0.08600
H1772       H  0.92858231  0.02292513  0.42868338     0.12200
H1773       H  0.87461671  0.06797037  0.37276099     0.12200
H1774       H  0.86316615  0.02630820  0.40617998     0.11900
H1775       H  0.86621302  0.97935808  0.40645905     0.12500
H1776       H  0.91576889  0.98178088  0.45978134     0.14400
C1777       C  0.89870855  0.56873710  0.33232807    -0.05600
C1778       C  0.91362312  0.55588435  0.46751373    -0.05500
C1779       C  0.91573767  0.52920817  0.46869544    -0.23700
C1780       C  0.90256632  0.51509220  0.33420978     0.18500
C1781       C  0.88680671  0.52800810  0.36494125     0.15700
C1782       C  0.88502186  0.55465230  0.36379544    -0.18700
C1783       C  0.87366247  0.51416970  0.39727829    -0.20600
C1784       C  0.87690435  0.48781133  0.40038394    -0.13100
C1785       C  0.89273450  0.47478886  0.37046403     0.03600
C1786       C  0.90513337  0.48839095  0.50341635    -0.25300
H1787       H  0.92434136  0.56650943  0.44302220     0.08600
H1788       H  0.92779481  0.51965067  0.44471941     0.12200
H1789       H  0.87338043  0.56450882  0.38807388     0.12200
H1790       H  0.86148145  0.52381574  0.42098026     0.11900
H1791       H  0.86690128  0.47752189  0.42617189     0.12500
H1792       H  0.91722135  0.47832172  0.48007821     0.14400
C1793       C  0.89409887  0.22783585  0.45541838    -0.05600
C1794       C  0.91052839  0.24170696  0.48279347    -0.05500
C1795       C  0.91451884  0.26777868  0.47561110    -0.23700
C1796       C  0.90157310  0.28047801  0.44164965     0.18500
C1797       C  0.88474306  0.26666132  0.41425319     0.15700
C1798       C  0.88137337  0.24033739  0.42096732    -0.18700
C1799       C  0.87177107  0.27936948  0.38034180    -0.20600
C1800       C  0.87578217  0.30543323  0.37310311    -0.13100
C1801       C  0.89232194  0.31930280  0.40030618     0.03600
C1802       C  0.90504875  0.30677038  0.43477636    -0.25300
H1803       H  0.92077658  0.23219898  0.34242794     0.08600
H1804       H  0.92745449  0.27806292  0.49694973     0.12200
H1805       H  0.86888869  0.22957151  0.39949667     0.12200
H1806       H  0.85883285  0.26908255  0.35901403     0.11900
H1807       H  0.86557690  0.31487952  0.34667930     0.12500
H1808       H  0.91769211  0.31746136  0.45608362     0.14400
C1809       C  0.64330644  0.06761747  0.43347986    -0.05600
C1810       C  0.62840002  0.05949221  0.39784870    -0.05500
C1811       C  0.62727047  0.03354947  0.38675996    -0.23700
C1812       C  0.64103093  0.01538370  0.41124236     0.18500
C1813       C  0.65660222  0.02370441  0.44639473     0.15700
C1814       C  0.65760562  0.04965556  0.29056361    -0.18700
C1815       C  0.67026872  0.00584811  0.30460370    -0.20600
C1816       C  0.66767075  0.97989694  0.46289837    -0.13100
C1817       C  0.65155982  0.97117807  0.42918637     0.03600
C1818       C  0.63882064  0.98904314  0.40242864    -0.25300
H1819       H  0.61685214  0.07308294  0.37965940     0.08600
H1820       H  0.61523165  0.02765621  0.35971976     0.12200
H1821       H  0.66915866  0.05588220  0.31806068     0.12200
H1822       H  0.68235485  0.01191211  0.33148696     0.11900
H1823       H  0.67791594  0.96647596  0.31699020     0.12500
H1824       H  0.62640328  0.98247096  0.37635125     0.14400
C1825       C  0.71882290  0.14569427  0.31964477    -0.05600
C1826       C  0.72945624  0.16055761  0.35315010    -0.05500
C1827       C  0.75597169  0.16395325  0.35546784    -0.23700
C1828       C  0.77221038  0.15194701  0.32496254     0.18500
C1829       C  0.76158859  0.13643442  0.29174427     0.15700
C1830       C  0.73491920  0.13362588  0.28904149    -0.18700
C1831       C  0.77780085  0.12433878  0.42805328    -0.20600
C1832       C  0.80426555  0.12806038  0.42986095    -0.13100
C1833       C  0.81498224  0.14345204  0.29598415     0.03600
C1834       C  0.79886248  0.15519722  0.32706109    -0.25300
H1835       H  0.71717458  0.17010174  0.37679806     0.08600
H1836       H  0.76378119  0.17586870  0.38118144     0.12200
H1837       H  0.72664500  0.12214901  0.42981530     0.12200
H1838       H  0.76997778  0.11232474  0.40248494     0.11900
H1839       H  0.81641001  0.11863157  0.40587741     0.12500
H1840       H  0.80703788  0.16704376  0.35256678     0.14400
C1841       C  0.65530039  0.56262376  0.42890256    -0.05600
C1842       C  0.66857972  0.54955346  0.46216530    -0.05500
C1843       C  0.66782386  0.52277470  0.46449449    -0.23700
C1844       C  0.65309973  0.50881439  0.43441581     0.18500
C1845       C  0.63912264  0.52212009  0.40173191     0.15700
C1846       C  0.64058734  0.54880483  0.39889150    -0.18700
C1847       C  0.62417324  0.50854077  0.37182629    -0.20600
C1848       C  0.62400300  0.48193709  0.37276185    -0.13100
C1849       C  0.63831935  0.46836390  0.40413511     0.03600
C1850       C  0.65240141  0.48186487  0.43574465    -0.25300
H1851       H  0.67979816  0.56004556  0.48589989     0.08600
H1852       H  0.67856153  0.51301665  0.48995309     0.12200
H1853       H  0.63000003  0.55892288  0.37358707     0.12200
H1854       H  0.61326860  0.51846959  0.34675262     0.11900
H1855       H  0.61305696  0.47183899  0.51482511     0.12500
H1856       H  0.66362028  0.47146584  0.45984582     0.14400
C1857       C  0.81778981  0.40115958  0.38468793    -0.05600
C1858       C  0.80643768  0.41588917  0.35133501    -0.05500
C1859       C  0.77985264  0.41773851  0.34803553    -0.23700
C1860       C  0.76411820  0.40434559  0.37740572     0.18500
C1861       C  0.77532759  0.38964374  0.41145355     0.15700
C1862       C  0.80217441  0.38840794  0.41527073    -0.18700
C1863       C  0.75946365  0.37618751  0.44064228    -0.20600
C1864       C  0.73282256  0.37725001  0.43608497    -0.13100
C1865       C  0.72159107  0.39144397  0.40184625     0.03600
C1866       C  0.73738022  0.40505844  0.37271705    -0.25300
H1867       H  0.81822619  0.42596449  0.32759202     0.08600
H1868       H  0.77160172  0.42912960  0.48850056     0.12200
H1869       H  0.81088322  0.37696359  0.44099040     0.12200
H1870       H  0.76764612  0.36485005  0.46697047     0.11900
H1871       H  0.72098823  0.36658997  0.45897167     0.12500
H1872       H  0.72886350  0.41615390  0.51304010     0.14400
C1873       C  0.63718083  0.21741115  0.34755755    -0.05600
C1874       C  0.62236982  0.22484487  0.38403763    -0.05500
C1875       C  0.62143903  0.25049430  0.39704101    -0.23700
C1876       C  0.63549635  0.26905494  0.37397361     0.18500
C1877       C  0.65056351  0.26159197  0.50410755     0.15700
C1878       C  0.65126948  0.23591803  0.49117014    -0.18700
C1879       C  0.66451981  0.27995287  0.48068898    -0.20600
C1880       C  0.66314799  0.30561185  0.49263780    -0.13100
C1881       C  0.64816772  0.31337440  0.36200979     0.03600
C1882       C  0.63454632  0.29495976  0.38631926    -0.25300
H1883       H  0.61118978  0.21087376  0.40207344     0.08600
H1884       H  0.60973090  0.25580381  0.42506716     0.12200
H1885       H  0.66286450  0.23031116  0.46313175     0.12200
H1886       H  0.67616785  0.27453646  0.45263960     0.11900
H1887       H  0.67385363  0.31948435  0.47352369     0.12500
H1888       H  0.62278689  0.30085254  0.41396280     0.14400
C1889       C  0.06756739  0.14501091  0.46364683    -0.05600
C1890       C  0.05679393  0.13117095  0.42899033    -0.05500
C1891       C  0.03019942  0.13019360  0.42404640    -0.23700
C1892       C  0.01411733  0.14349637  0.28654858     0.18500
C1893       C  0.02496373  0.15800546  0.32086065     0.15700
C1894       C  0.05161189  0.15855001  0.49261366    -0.18700
C1895       C  0.00897208  0.17126074  0.35010246    -0.20600
C1896       C  0.98240373  0.16953142  0.34623942    -0.13100
C1897       C  0.97147503  0.15505725  0.31244592     0.03600
C1898       C  0.98740126  0.14233314  0.28229700    -0.25300
H1899       H  0.06891902  0.12054885  0.40650710     0.08600
H1900       H  0.02220672  0.11901057  0.39754124     0.12200
H1901       H  0.05996127  0.16938471  0.35262189     0.12200
H1902       H  0.01700136  0.18250768  0.37649939     0.11900
H1903       H  0.97035800  0.17958962  0.36960943     0.12500
H1904       H  0.97899796  0.13108061  0.25621870     0.14400
C1905       C  0.47204974  0.15080642  0.40233150    -0.05600
C1906       C  0.48774075  0.16650264  0.37630968    -0.05500
C1907       C  0.51388942  0.16827345  0.38471668    -0.23700
C1908       C  0.52484409  0.15385681  0.41863909     0.18500
C1909       C  0.50924114  0.13792477  0.44509803     0.15700
C1910       C  0.48275916  0.13676777  0.43714567    -0.18700
C1911       C  0.52047900  0.12339535  0.31212703    -0.20600
C1912       C  0.54690935  0.12474778  0.31955519    -0.13100
C1913       C  0.56248062  0.14036800  0.45966260     0.03600
C1914       C  0.55124610  0.15490491  0.42600881    -0.25300
H1915       H  0.47968753  0.17756422  0.34952222     0.08600
H1916       H  0.52562767  0.18049789  0.36409079     0.12200
H1917       H  0.47063178  0.12461603  0.45724592     0.12200
H1918       H  0.50883338  0.11115077  0.33285816     0.11900
H1919       H  0.55520450  0.11335481  0.34568212     0.12500
H1920       H  0.56307995  0.16703194  0.40532344     0.14400
C1921       C  0.22222351  0.14217382  0.34338190    -0.05600
C1922       C  0.23128703  0.12783737  0.37917679    -0.05500
C1923       C  0.25748031  0.12650043  0.38799045    -0.23700
C1924       C  0.27496129  0.13988598  0.36160551     0.18500
C1925       C  0.26600768  0.15443672  0.49220532     0.15700
C1926       C  0.23966892  0.15533316  0.48313229    -0.18700
C1927       C  0.28356079  0.16785024  0.46591013    -0.20600
C1928       C  0.30976706  0.16671611  0.47511700    -0.13100
C1929       C  0.31871097  0.15249219  0.34444643     0.03600
C1930       C  0.30122949  0.13911266  0.37092483    -0.25300
H1931       H  0.21808879  0.11742437  0.40011561     0.08600
H1932       H  0.26403343  0.11523067  0.41571108     0.12200
H1933       H  0.23270920  0.16650884  0.45556138     0.12200
H1934       H  0.27704031  0.17912462  0.43817652     0.11900
H1935       H  0.32301964  0.17731018  0.45456857     0.12500
H1936       H  0.30811435  0.12800018  0.39863443     0.14400
C1937       C  0.97529714  0.39731988  0.37683548    -0.05600
C1938       C  0.99021995  0.41331268  0.40341883    -0.05500
C1939       C  0.01664024  0.41578332  0.39565868    -0.23700
C1940       C  0.02855248  0.40191502  0.52836067     0.18500
C1941       C  0.01365550  0.38529797  0.33573522     0.15700
C1942       C  0.98725616  0.38320462  0.34334641    -0.18700
C1943       C  0.02521064  0.37144875  0.46833024    -0.20600
C1944       C  0.05118799  0.37459974  0.45905939    -0.13100
C1945       C  0.06624114  0.39120241  0.48419806     0.03600
C1946       C  0.05495448  0.40454067  0.51944801    -0.25300
H1947       H  0.98133370  0.42446557  0.42928615     0.08600
H1948       H  0.02771292  0.42849852  0.58279385     0.12200
H1949       H  0.97587847  0.37083657  0.32261637     0.12200
H1950       H  0.01402866  0.35865062  0.28149607     0.11900
H1951       H  0.05958148  0.36398273  0.43205317     0.12500
H1952       H  0.06649493  0.41736955  0.53900616     0.14400
C1953       C  0.14729534  0.31759339  0.45516826    -0.05600
C1954       C  0.16256124  0.30512694  0.42379426    -0.05500
C1955       C  0.16581415  0.27862235  0.42536931    -0.23700
C1956       C  0.15313483  0.26409271  0.45751595     0.18500
C1957       C  0.13754097  0.27648923  0.48909899     0.15700
C1958       C  0.13503233  0.30326183  0.48813182    -0.18700
C1959       C  0.12473854  0.26187734  0.35433636    -0.20600
C1960       C  0.12753027  0.23526105  0.35519406    -0.13100
C1961       C  0.14271633  0.22276322  0.49025969     0.03600
C1962       C  0.15550210  0.23735455  0.45816906    -0.25300
H1963       H  0.17229557  0.31599717  0.39840821     0.08600
H1964       H  0.17782784  0.26943355  0.40090625     0.12200
H1965       H  0.12328065  0.31291548  0.51247378     0.12200
H1966       H  0.11271379  0.27103713  0.37881515     0.11900
H1967       H  0.11737398  0.22437667  0.38004937     0.12500
H1968       H  0.16722159  0.22788337  0.43357157     0.14400
C1969       C  0.56481629  0.38586502  0.37591609    -0.05600
C1970       C  0.55201003  0.37073208  0.40718374    -0.05500
C1971       C  0.52539865  0.36910020  0.40736591    -0.23700
C1972       C  0.51102117  0.38302635  0.37683984     0.18500
C1973       C  0.52355804  0.39789408  0.34440475     0.15700
C1974       C  0.55054149  0.39898856  0.34378885    -0.18700
C1975       C  0.50878123  0.41179526  0.31400474    -0.20600
C1976       C  0.48191910  0.41136311  0.31646550    -0.13100
C1977       C  0.46961096  0.39739199  0.34979711     0.03600
C1978       C  0.48425918  0.38295822  0.37934820    -0.25300
H1979       H  0.56264301  0.36026041  0.43193414     0.08600
H1980       H  0.51602887  0.35757423  0.43230845     0.12200
H1981       H  0.56031790  0.41064950  0.31949249     0.12200
H1982       H  0.51798019  0.42320196  0.28873641     0.11900
H1983       H  0.47081953  0.42267799  0.29348800     0.12500
H1984       H  0.47474731  0.37209532  0.40505893     0.14400
C1985       C  0.39222253  0.32420982  0.39498263    -0.05600
C1986       C  0.37792547  0.31291407  0.42892266    -0.05500
C1987       C  0.37627866  0.28626696  0.43210619    -0.23700
C1988       C  0.38937963  0.27067329  0.40192237     0.18500
C1989       C  0.40450549  0.28210423  0.36862914     0.15700
C1990       C  0.40568702  0.30874550  0.36525760    -0.18700
C1991       C  0.41772043  0.26674550  0.50514599    -0.20600
C1992       C  0.41528353  0.24025497  0.50690471    -0.13100
C1993       C  0.40000362  0.22862280  0.37269174     0.03600
C1994       C  0.38740282  0.24391507  0.40399890    -0.25300
H1995       H  0.36737139  0.32469004  0.45200906     0.08600
H1996       H  0.36468697  0.27786745  0.45796629     0.12200
H1997       H  0.41682604  0.31752187  0.50576836     0.12200
H1998       H  0.42945207  0.27524347  0.47955465     0.11900
H1999       H  0.42539148  0.22881772  0.48275016     0.12500
H2000       H  0.37568732  0.23505899  0.42926958     0.14400
C2001       C  0.31515336  0.40561932  0.40261180    -0.05600
C2002       C  0.30715362  0.42036984  0.43871733    -0.05500
C2003       C  0.28129568  0.42179314  0.45038497    -0.23700
C2004       C  0.26297542  0.40819566  0.42654508     0.18500
C2005       C  0.27077273  0.39328199  0.39012380     0.15700
C2006       C  0.29681705  0.39218018  0.37824296    -0.18700
C2007       C  0.25237824  0.37964321  0.36639529    -0.20600
C2008       C  0.22652194  0.38091194  0.37845583    -0.13100
C2009       C  0.21868298  0.39558584  0.41469890     0.03600
C2010       C  0.23701261  0.40914875  0.43871387    -0.25300
H2011       H  0.32094290  0.43094957  0.45793868     0.08600
H2012       H  0.27567724  0.43330892  0.31170963     0.12200
H2013       H  0.30284411  0.38064794  0.51718743     0.12200
H2014       H  0.25797445  0.36807527  0.50515289     0.11900
H2015       H  0.21267607  0.37003846  0.52659596     0.12500
H2016       H  0.23103103  0.42053700  0.46667308     0.14400
C2017       C  0.13424600  0.97351216  0.42872411    -0.05600
C2018       C  0.11875019  0.98868548  0.40133979    -0.05500
C2019       C  0.11709660  0.01507240  0.40741596    -0.23700
C2020       C  0.13136932  0.02689952  0.44043018     0.18500
C2021       C  0.14670752  0.01184654  0.46878821     0.15700
C2022       C  0.14784010  0.98515060  0.46305868    -0.18700
C2023       C  0.16081635  0.02385195  0.50202033    -0.20600
C2024       C  0.15965884  0.05044705  0.50712151    -0.13100
C2025       C  0.14500763  0.06545482  0.47827865     0.03600
C2026       C  0.13089129  0.05358634  0.44500447    -0.25300
H2027       H  0.10793663  0.98010609  0.37492626     0.08600
H2028       H  0.10520099  0.02631193  0.38548290     0.12200
H2029       H  0.15977680  0.97357896  0.48443450     0.12200
H2030       H  0.17257503  0.01266980  0.52424117     0.11900
H2031       H  0.17069057  0.05937698  0.53291893     0.12500
H2032       H  0.11954023  0.06517172  0.42270206     0.14400
C2033       C  0.06037984  0.89256532  0.42100349    -0.05600
C2034       C  0.04484219  0.87730671  0.39430060    -0.05500
C2035       C  0.01842057  0.87571319  0.40226705    -0.23700
C2036       C  0.00710291  0.88995499  0.43628612     0.18500
C2037       C  0.02269704  0.90565547  0.46282547     0.15700
C2038       C  0.04923632  0.90658042  0.45536789    -0.18700
C2039       C  0.01152135  0.91998199  0.33006225    -0.20600
C2040       C  0.98529204  0.91821321  0.50521227    -0.13100
C2041       C  0.96962408  0.90259999  0.47931489     0.03600
C2042       C  0.98054377  0.88875153  0.44439569    -0.25300
H2043       H  0.05323373  0.86635037  0.53439223     0.08600
H2044       H  0.00681206  0.86365834  0.54813501     0.12200
H2045       H  0.06123787  0.91838823  0.47602209     0.12200
H2046       H  0.02319295  0.93209067  0.35070582     0.11900
H2047       H  0.97713884  0.92910199  0.36545127     0.12500
H2048       H  0.96851833  0.87663316  0.42435675     0.14400
C2049       C  0.14227256  0.47493426  0.44645715    -0.05600
C2050       C  0.12806892  0.48915507  0.41571291    -0.05500
C2051       C  0.12819054  0.51598453  0.41679518    -0.23700
C2052       C  0.14287116  0.52900579  0.44816616     0.18500
C2053       C  0.15770457  0.51472927  0.47838113     0.15700
C2054       C  0.15724022  0.48795502  0.47739717    -0.18700
C2055       C  0.17236306  0.52741268  0.34324212    -0.20600
C2056       C  0.17153027  0.55398164  0.34616416    -0.13100
C2057       C  0.15658044  0.56846566  0.48361815     0.03600
C2058       C  0.14268505  0.55594258  0.45054284    -0.25300
H2059       H  0.11651446  0.47953494  0.39137984     0.08600
H2060       H  0.11680482  0.52653511  0.39314825     0.12200
H2061       H  0.16847263  0.47722502  0.33439777     0.12200
H2062       H  0.18384829  0.51673296  0.36659335     0.11900
H2063       H  0.18246578  0.56328093  0.37170614     0.12500
H2064       H  0.13107268  0.56702835  0.42793280     0.14400
C2065       C  0.97825451  0.64243569  0.35459393    -0.05600
C2066       C  0.98934780  0.62749582  0.38796367    -0.05500
C2067       C  0.01600861  0.62486443  0.39071805    -0.23700
C2068       C  0.03201363  0.63760498  0.36072201     0.18500
C2069       C  0.02092511  0.65281921  0.49395835     0.15700
C2070       C  0.99418752  0.65495438  0.49090612    -0.18700
C2071       C  0.03674561  0.66563649  0.46396125    -0.20600
C2072       C  0.06331297  0.66317604  0.46660642    -0.13100
C2073       C  0.07464043  0.64824669  0.33310514     0.03600
C2074       C  0.05886164  0.63553989  0.36363626    -0.25300
H2075       H  0.97736734  0.61755538  0.41157048     0.08600
H2076       H  0.02410703  0.61310713  0.41657782     0.12200
H2077       H  0.98576836  0.66655104  0.46509098     0.12200
H2078       H  0.02856418  0.67738913  0.43816244     0.11900
H2079       H  0.07506697  0.67326679  0.44284823     0.12500
H2080       H  0.06743035  0.62397272  0.38932614     0.14400
C2081       C  0.13952188  0.81929322  0.37401478    -0.05600
C2082       C  0.12538413  0.81063518  0.33781240    -0.05500
C2083       C  0.12516562  0.78472993  0.32674415    -0.23700
C2084       C  0.13941907  0.76703871  0.35127907     0.18500
C2085       C  0.15375748  0.77556572  0.38775793     0.15700
C2086       C  0.15361150  0.80161536  0.39903556    -0.18700
C2087       C  0.16795946  0.75786746  0.41237575    -0.20600
C2088       C  0.16764292  0.73194923  0.40142934    -0.13100
C2089       C  0.15352734  0.72332106  0.36522093     0.03600
C2090       C  0.13955058  0.74097885  0.34002708    -0.25300
H2091       H  0.11424563  0.82392965  0.31823637     0.08600
H2092       H  0.11400149  0.77857125  0.29878757     0.12200
H2093       H  0.16467179  0.80817125  0.42687437     0.12200
H2094       H  0.17910550  0.76402143  0.44035701     0.11900
H2095       H  0.17866192  0.71860008  0.42108944     0.12500
H2096       H  0.12846761  0.73436839  0.31225100     0.14400
C2097       C  0.39445837  0.07169871  0.37541801    -0.05600
C2098       C  0.40925516  0.05798987  0.34482332    -0.05500
C2099       C  0.41059162  0.03135034  0.34689974    -0.23700
C2100       C  0.39672718  0.01797831  0.37906356     0.18500
C2101       C  0.38147043  0.03157761  0.40961995     0.15700
C2102       C  0.38054806  0.05836270  0.40774596    -0.18700
C2103       C  0.36773029  0.01815732  0.44194637    -0.20600
C2104       C  0.36962343  0.99153380  0.44467749    -0.13100
C2105       C  0.38466569  0.97793688  0.41434530     0.03600
C2106       C  0.39796771  0.99124175  0.38130745    -0.25300
H2107       H  0.42019244  0.06791498  0.31975284     0.08600
H2108       H  0.42232938  0.02119885  0.32317648     0.12200
H2109       H  0.36909025  0.06882255  0.43150479     0.12200
H2110       H  0.35598860  0.02828555  0.46568858     0.11900
H2111       H  0.35918267  0.98152960  0.47027341     0.12500
H2112       H  0.40966894  0.98079897  0.35786134     0.14400
C2113       C  0.47007546  0.90822967  0.42688214    -0.05600
C2114       C  0.48219972  0.92326095  0.39475605    -0.05500
C2115       C  0.50883963  0.92538598  0.39367036    -0.23700
C2116       C  0.52389272  0.91187262  0.42392890     0.18500
C2117       C  0.51197048  0.89705637  0.45706680     0.15700
C2118       C  0.48500780  0.89563589  0.45877047    -0.18700
C2119       C  0.52730120  0.88343249  0.48702469    -0.20600
C2120       C  0.55412175  0.88398488  0.48342374    -0.13100
C2121       C  0.56594877  0.89785911  0.44944380     0.03600
C2122       C  0.55068587  0.91217099  0.42040018    -0.25300
H2123       H  0.47099752  0.93323642  0.37013921     0.08600
H2124       H  0.51770964  0.93686793  0.36814425     0.12200
H2125       H  0.47572361  0.88398441  0.48364925     0.12200
H2126       H  0.51854715  0.87205532  0.51279339     0.11900
H2127       H  0.56555840  0.87279255  0.50609400     0.12500
H2128       H  0.55969762  0.92303716  0.39418618     0.14400
C2129       C  0.21721621  0.89929321  0.38879493    -0.05600
C2130       C  0.22917826  0.91387429  0.35579501    -0.05500
C2131       C  0.25599163  0.91553584  0.35375322    -0.23700
C2132       C  0.27127765  0.90227456  0.38421241     0.18500
C2133       C  0.25933155  0.88714699  0.41689891     0.15700
C2134       C  0.23250944  0.88581935  0.41900938    -0.18700
C2135       C  0.27436987  0.87398337  0.44763855    -0.20600
C2136       C  0.30099101  0.87647558  0.44707284    -0.13100
C2137       C  0.31313939  0.89153660  0.41500232     0.03600
C2138       C  0.29822415  0.90408561  0.38305412    -0.25300
H2139       H  0.21780127  0.92438837  0.49881039     0.08600
H2140       H  0.26477841  0.92717870  0.49504975     0.12200
H2141       H  0.22351208  0.87438732  0.44450601     0.12200
H2142       H  0.26549463  0.86230058  0.47288852     0.11900
H2143       H  0.31216875  0.86659917  0.47183782     0.12500
H2144       H  0.30751338  0.91581503  0.35829021     0.14400
C2145       C  0.40986027  0.57396855  0.51351507    -0.05600
C2146       C  0.42365747  0.56400223  0.38246147    -0.05500
C2147       C  0.42345994  0.53779553  0.39123173    -0.23700
C2148       C  0.40888834  0.52132268  0.36514748     0.18500
C2149       C  0.39486169  0.53128732  0.32925666     0.15700
C2150       C  0.39569577  0.55753980  0.48670113    -0.18700
C2151       C  0.38014157  0.51485758  0.47009684    -0.20600
C2152       C  0.37942445  0.48873777  0.31283141    -0.13100
C2153       C  0.39320646  0.47869405  0.34854099     0.03600
C2154       C  0.40792050  0.49510578  0.37460306    -0.25300
H2155       H  0.43463733  0.57652931  0.40345819     0.08600
H2156       H  0.43431057  0.53048492  0.41885760     0.12200
H2157       H  0.38478296  0.56530366  0.45946532     0.12200
H2158       H  0.36925924  0.52217775  0.44251159     0.11900
H2159       H  0.36799356  0.47639089  0.45894775     0.12500
H2160       H  0.41874980  0.48746494  0.40202519     0.14400
C2161       C  0.57496392  0.63604965  0.39322284    -0.05600
C2162       C  0.55858291  0.62177457  0.42037524    -0.05500
C2163       C  0.53213831  0.62197836  0.41322753    -0.23700
C2164       C  0.52165272  0.63707026  0.37958643     0.18500
C2165       C  0.53802820  0.65140153  0.35184771     0.15700
C2166       C  0.56464461  0.65054404  0.35853847    -0.18700
C2167       C  0.52744404  0.66647739  0.48481741    -0.20600
C2168       C  0.50088667  0.66703983  0.47832260    -0.13100
C2169       C  0.48457629  0.65320231  0.50626755     0.03600
C2170       C  0.49504390  0.63831705  0.37359480    -0.25300
H2171       H  0.56627107  0.61052461  0.44723550     0.08600
H2172       H  0.51983072  0.61090795  0.43478065     0.12200
H2173       H  0.57725813  0.66176431  0.50434623     0.12200
H2174       H  0.53971686  0.67749791  0.46313506     0.11900
H2175       H  0.49304413  0.67852574  0.45189295     0.12500
H2176       H  0.48243592  0.62749047  0.39506331     0.14400
C2177       C  0.23203685  0.64934889  0.50912751    -0.05600
C2178       C  0.24341472  0.66439100  0.37499414    -0.05500
C2179       C  0.26994828  0.66765060  0.37581918    -0.23700
C2180       C  0.28556085  0.65526762  0.34486387     0.18500
C2181       C  0.27428814  0.63985493  0.47883355     0.15700
C2182       C  0.24749974  0.63727291  0.47746952    -0.18700
C2183       C  0.29003007  0.62740663  0.44805745    -0.20600
C2184       C  0.31666142  0.63040188  0.44943205    -0.13100
C2185       C  0.32796282  0.64542959  0.48216985     0.03600
C2186       C  0.31227101  0.65784351  0.34642126    -0.25300
H2187       H  0.23167634  0.67402016  0.39934321     0.08600
H2188       H  0.27829124  0.67953994  0.40107257     0.12200
H2189       H  0.23868995  0.62571516  0.45219671     0.12200
H2190       H  0.28173609  0.61552872  0.42274509     0.11900
H2191       H  0.32846084  0.62060228  0.42539104     0.12500
H2192       H  0.32086400  0.66953176  0.37174417     0.14400
C2193       C  0.39987377  0.82171812  0.42684088    -0.05600
C2194       C  0.41588361  0.80867200  0.39719216    -0.05500
C2195       C  0.41962233  0.78225816  0.40121475    -0.23700
C2196       C  0.40686917  0.76845809  0.43426787     0.18500
C2197       C  0.39028517  0.78149670  0.46356810     0.15700
C2198       C  0.38710020  0.80801126  0.45991085    -0.18700
C2199       C  0.37742573  0.76788541  0.49654981    -0.20600
C2200       C  0.38162901  0.74171648  0.50155284    -0.13100
C2201       C  0.39824643  0.72857756  0.47302021     0.03600
C2202       C  0.41050059  0.74193430  0.43882346    -0.25300
H2203       H  0.42590346  0.81900037  0.37148294     0.08600
H2204       H  0.43231238  0.77261189  0.37832089     0.12200
H2205       H  0.37464569  0.81801428  0.48279095     0.12200
H2206       H  0.36461642  0.77758793  0.51918865     0.11900
H2207       H  0.37177797  0.73167074  0.52778999     0.12500
H2208       H  0.42322466  0.73183320  0.41653848     0.14400
O2209       O  0.41037804  0.61038787  0.63327375    -0.73300
O2210       O  0.40617998  0.68631647  0.61325465    -0.74300
O2211       O  0.44688855  0.65082845  0.62904602    -0.62900
O2212       O  0.37010949  0.64547187  0.61766919    -0.71300
O2213       O  0.36619029  0.65160871  0.52273594    -0.70900
O2214       O  0.44225983  0.65651374  0.53417961    -0.62100
O2215       O  0.40142972  0.69182887  0.51836051    -0.74600
O2216       O  0.40670373  0.61664104  0.53842070    -0.73400
Cu2217     Cu  0.40861206  0.64809559  0.62069302     1.04600
Cu2218     Cu  0.40406666  0.65442426  0.53079156     1.04300
C2219       C  0.40909339  0.60162829  0.67241374     0.92900
C2220       C  0.40241820  0.70097066  0.64616651     0.92000
C2221       C  0.45661553  0.65383922  0.66712076     0.84200
C2222       C  0.35607762  0.64763725  0.65197761     0.90400
O2223       O  0.38632709  0.93867594  0.62090305    -0.73300
O2224       O  0.39410809  0.86242770  0.62641151    -0.74300
O2225       O  0.42883656  0.90411240  0.62741486    -0.62900
O2226       O  0.35225908  0.89641857  0.62035967    -0.71300
O2227       O  0.35440842  0.89545945  0.54765147    -0.70900
O2228       O  0.43103480  0.90327411  0.55470187    -0.62100
O2229       O  0.39713269  0.86096856  0.55379364    -0.74600
O2230       O  0.38922486  0.93709923  0.54827685    -0.73400
Cu2231     Cu  0.39029360  0.90048448  0.62630908     1.04600
Cu2232     Cu  0.39299991  0.89911256  0.54859117     1.04300
C2233       C  0.38671413  0.94992043  0.58360359     0.92900
C2234       C  0.39691267  0.84968079  0.59102628     0.92000
C2235       C  0.44200668  0.90501201  0.59198842     0.84200
C2236       C  0.34125009  0.89467752  0.58312332     0.90400
O2237       O  0.15407634  0.61182011  0.62415564    -0.73300
O2238       O  0.15391456  0.68804824  0.64852783    -0.74300
O2239       O  0.19251737  0.64970161  0.63745418    -0.62900
O2240       O  0.11598099  0.65062098  0.63401846    -0.71300
O2241       O  0.11408442  0.64153134  0.53846373    -0.70900
O2242       O  0.19127522  0.64370604  0.54293893    -0.62100
O2243       O  0.15186055  0.67978703  0.55327568    -0.74600
O2244       O  0.15441825  0.60490268  0.52935385    -0.73400
Cu2245     Cu  0.15415076  0.65026196  0.63349237     1.04600
Cu2246     Cu  0.15279210  0.64212720  0.54341289     1.04300
C2247       C  0.15478105  0.59639640  0.65681749     0.92900
C2248       C  0.15297225  0.69578460  0.52166896     0.92000
C2249       C  0.20397841  0.64724514  0.67416276     0.84200
C2250       C  0.10287293  0.64647533  0.50210223     0.90400
O2251       O  0.13725769  0.86313070  0.52066114    -0.73300
O2252       O  0.13358714  0.93773139  0.54764714    -0.74300
O2253       O  0.17438042  0.90309142  0.52703074    -0.62900
O2254       O  0.09742665  0.89750666  0.54223036    -0.71300
O2255       O  0.10318564  0.89089600  0.61352393    -0.70900
O2256       O  0.17921635  0.89311312  0.59730261    -0.62100
O2257       O  0.14077828  0.92998970  0.61814685    -0.74600
O2258       O  0.14188238  0.85418063  0.59139741    -0.73400
Cu2259     Cu  0.13555914  0.90067682  0.53194798     1.04600
Cu2260     Cu  0.14146504  0.89174824  0.60754359     1.04300
C2261       C  0.13965358  0.84680085  0.55157126     0.92900
C2262       C  0.13642909  0.94577204  0.58685026     0.92000
C2263       C  0.18893910  0.89851753  0.55991860     0.84200
C2264       C  0.08829871  0.89362162  0.58067191     0.90400
O2265       O  0.35009061  0.39841634  0.51927298    -0.73300
O2266       O  0.42607403  0.39794889  0.49171950    -0.74300
O2267       O  0.38932671  0.36060390  0.51596959    -0.62900
O2268       O  0.38685362  0.43561276  0.49393433    -0.71300
O2269       O  0.39809355  0.44272941  0.56297347    -0.70900
O2270       O  0.39458586  0.36717125  0.58732926    -0.62100
O2271       O  0.43367330  0.40180820  0.56301810    -0.74600
O2272       O  0.35908552  0.40821143  0.58828338    -0.73400
Cu2273     Cu  0.38775287  0.39788857  0.50274009     1.04600
Cu2274     Cu  0.39664411  0.40524363  0.57782422     1.04300
C2275       C  0.34270441  0.40396702  0.55824222     0.92900
C2276       C  0.44179248  0.39923029  0.52372742     0.92000
C2277       C  0.39199497  0.35198301  0.55490028     0.84200
C2278       C  0.39264508  0.45106974  0.52459986     0.90400
O2279       O  0.18516828  0.39715110  0.63485914    -0.73300
O2280       O  0.11041589  0.39674167  0.66948819    -0.74300
O2281       O  0.14852913  0.35855458  0.65532841    -0.62900
O2282       O  0.14747924  0.43504028  0.64960951    -0.71300
O2283       O  0.13549846  0.43385915  0.57990227    -0.70900
O2284       O  0.13956408  0.35676688  0.58422121    -0.62100
O2285       O  0.10030071  0.39333313  0.59911649    -0.74600
O2286       O  0.17427954  0.39608998  0.56459070    -0.73400
Cu2287     Cu  0.14821727  0.39698371  0.65473709     1.04600
Cu2288     Cu  0.13695538  0.39505731  0.57957672     1.04300
C2289       C  0.19145087  0.39643888  0.59426311     0.92900
C2290       C  0.09359444  0.39420616  0.63945355     0.92000
C2291       C  0.14481036  0.34560770  0.62047970     0.84200
C2292       C  0.14156338  0.44662667  0.61409163     0.90400
O2293       O  0.35325343  0.15131744  0.56158644    -0.73300
O2294       O  0.42815201  0.14925872  0.59050136    -0.74300
O2295       O  0.39172839  0.18887735  0.57556210    -0.62900
O2296       O  0.38947196  0.11219687  0.57648542    -0.71300
O2297       O  0.39936243  0.11177999  0.50558090    -0.70900
O2298       O  0.40153037  0.18813279  0.50463066    -0.62100
O2299       O  0.43738517  0.14939608  0.51929635    -0.74600
O2300       O  0.36271527  0.15144326  0.65718208    -0.73400
Cu2301     Cu  0.39028395  0.15041958  0.57851431     1.04600
Cu2302     Cu  0.40047722  0.15009220  0.66923020     1.04300
C2303       C  0.34619279  0.15175122  0.52151261     0.92900
C2304       C  0.44456443  0.14947759  0.55927969     0.92000
C2305       C  0.39747756  0.20057928  0.53997297     0.84200
C2306       C  0.39428933  0.09987954  0.54125535     0.90400
O2307       O  0.14861764  0.18330457  0.61949298    -0.73300
O2308       O  0.14855000  0.10681700  0.61342306    -0.74300
O2309       O  0.11081744  0.14528290  0.60524710    -0.62900
O2310       O  0.18655659  0.14479444  0.62827624    -0.71300
O2311       O  0.17877524  0.14246596  0.53316853    -0.70900
O2312       O  0.10360745  0.14343170  0.51036697    -0.62100
O2313       O  0.14162688  0.10441744  0.51857216    -0.74600
O2314       O  0.14060288  0.18150407  0.52431523    -0.73400
Cu2315     Cu  0.14893772  0.14513167  0.61414064     1.04600
Cu2316     Cu  0.14092416  0.14289823  0.52410904     1.04300
C2317       C  0.14419333  0.19454897  0.65591299     0.92900
C2318       C  0.14507976  0.09354898  0.64817869     0.92000
C2319       C  0.09530288  0.14456619  0.63776293     0.84200
C2320       C  0.19455734  0.14329205  0.66779239     0.90400
O2321       O  0.60663668  0.39220235  0.67791980    -0.73300
O2322       O  0.68357644  0.39607174  0.69206652    -0.74300
O2323       O  0.64810221  0.35681625  0.67386743    -0.62900
O2324       O  0.64228665  0.43139171  0.69424065    -0.71300
O2325       O  0.64009493  0.42540457  0.59960380    -0.70900
O2326       O  0.64246939  0.34869983  0.57808232    -0.62100
O2327       O  0.67922148  0.38711033  0.59624380    -0.74600
O2328       O  0.60337554  0.38603932  0.58311833    -0.73400
Cu2329     Cu  0.64530563  0.39438418  0.68210913     1.04600
Cu2330     Cu  0.64113121  0.38663982  0.59182898     1.04300
C2331       C  0.59292008  0.38831808  0.54551666     0.92900
C2332       C  0.69348334  0.39167256  0.56306654     0.92000
C2333       C  0.64606999  0.34088216  0.53874582     0.84200
C2334       C  0.64040430  0.44038944  0.56625479     0.90400
O2335       O  0.60454123  0.14949550  0.60095478    -0.73300
O2336       O  0.68077509  0.14800313  0.61101972    -0.74300
O2337       O  0.64264204  0.11235753  0.58565942    -0.62900
O2338       O  0.64237846  0.18527173  0.62626230    -0.71300
O2339       O  0.63494086  0.17255577  0.52791756    -0.70900
O2340       O  0.64266413  0.09973475  0.48852777    -0.62100
O2341       O  0.67701708  0.13886028  0.51531156    -0.74600
O2342       O  0.60061849  0.13348826  0.50147953    -0.73400
Cu2343     Cu  0.64272261  0.14922751  0.60364442     1.04600
Cu2344     Cu  0.63870864  0.13568197  0.51070512     1.04300
C2345       C  0.59050490  0.14115291  0.46562156     0.92900
C2346       C  0.69091035  0.14395743  0.48181760     0.92000
C2347       C  0.64295443  0.09450168  0.44758973     0.84200
C2348       C  0.63810316  0.19049106  0.49994411     0.90400
O2349       O  0.89528168  0.43703719  0.57972068    -0.73300
O2350       O  0.89809549  0.36131799  0.59435418    -0.74300
O2351       O  0.93583354  0.40056113  0.58430223    -0.62900
O2352       O  0.85811702  0.39838536  0.58860088    -0.71300
O2353       O  0.85787130  0.39732746  0.51580628    -0.70900
O2354       O  0.93392025  0.39269395  0.51290552    -0.62100
O2355       O  0.89347777  0.35678922  0.52242879    -0.74600
O2356       O  0.89758025  0.43297612  0.50731099    -0.73400
Cu2357     Cu  0.89699329  0.39942198  0.58939313     1.04600
Cu2358     Cu  0.89580177  0.39470036  0.51216698     1.04300
C2359       C  0.89567409  0.44698531  0.54144272     0.92900
C2360       C  0.89502760  0.34706975  0.56086665     0.92000
C2361       C  0.94704592  0.39672362  0.54743483     0.84200
C2362       C  0.84588650  0.39863288  0.55226843     0.90400
O2363       O  0.89297851  0.11370046  0.51303503    -0.73300
O2364       O  0.89108700  0.19027806  0.49932362    -0.74300
O2365       O  0.85348379  0.15074078  0.50223159    -0.62900
O2366       O  0.92985342  0.15379692  0.51059412    -0.71300
O2367       O  0.93304773  0.15054237  0.60483925    -0.70900
O2368       O  0.85663447  0.14462110  0.59702841    -0.62100
O2369       O  0.89231607  0.18575327  0.59357618    -0.74600
O2370       O  0.89783154  0.11013860  0.60760201    -0.73400
Cu2371     Cu  0.89163511  0.15227402  0.50885664     1.04600
Cu2372     Cu  0.89495642  0.14766218  0.59826138     1.04300
C2373       C  0.89640503  0.09991127  0.47889303     0.92900
C2374       C  0.89200332  0.20000971  0.46084509     0.92000
C2375       C  0.84299974  0.14658852  0.46514321     0.84200
C2376       C  0.94349002  0.15301612  0.47574232     0.90400
O2377       O  0.65159172  0.60411139  0.62673638    -0.73300
O2378       O  0.64509722  0.68030647  0.61388475    -0.74300
O2379       O  0.61062209  0.63843519  0.60823856    -0.62900
O2380       O  0.68602533  0.64583382  0.63222758    -0.71300
O2381       O  0.69380260  0.64368562  0.56066714    -0.70900
O2382       O  0.61851434  0.63640482  0.53668302    -0.62100
O2383       O  0.65248106  0.67747752  0.54221332    -0.74600
O2384       O  0.65880341  0.60138978  0.55502578    -0.73400
Cu2385     Cu  0.64809783  0.64226457  0.62277525     1.04600
Cu2386     Cu  0.65632151  0.63951533  0.54623914     1.04300
C2387       C  0.65564861  0.59070578  0.59246951     0.92900
C2388       C  0.64732797  0.69081174  0.57611663     0.92000
C2389       C  0.60267251  0.63677927  0.56870521     0.84200
C2390       C  0.70177189  0.64628123  0.60003209     0.90400
O2391       O  0.93593490  0.64240058  0.55139957    -0.73300
O2392       O  0.85926712  0.64653506  0.53916188    -0.74300
O2393       O  0.89592029  0.60714911  0.53932306    -0.62900
O2394       O  0.89953624  0.68297299  0.55161518    -0.71300
O2395       O  0.90188793  0.68689135  0.64582529    -0.70900
O2396       O  0.90193365  0.61046406  0.63406359    -0.62100
O2397       O  0.86352615  0.64944213  0.63352781    -0.74600
O2398       O  0.94011554  0.64813335  0.64622508    -0.73400
Cu2399     Cu  0.89749486  0.64473722  0.54788014     1.04600
Cu2400     Cu  0.90199625  0.64891919  0.63737288     1.04300
C2401       C  0.95012242  0.64449057  0.51729539     0.92900
C2402       C  0.84929331  0.64785932  0.66764962     0.92000
C2403       C  0.89875744  0.59677917  0.50176069     0.84200
C2404       C  0.90111882  0.69693586  0.68395701     0.90400
O2405       O  0.63676893  0.85475157  0.55456763    -0.73300
O2406       O  0.64187897  0.93266252  0.55550960    -0.74300
O2407       O  0.67605613  0.89089688  0.53935555    -0.62900
O2408       O  0.60174278  0.89656482  0.56821165    -0.71300
O2409       O  0.60984214  0.89383248  0.63946297    -0.70900
O2410       O  0.68576648  0.89155265  0.61016024    -0.62100
O2411       O  0.64971203  0.93011755  0.62688105    -0.74600
O2412       O  0.64717685  0.85510137  0.62505594    -0.73400
Cu2413     Cu  0.63864654  0.89376260  0.55188334     1.04600
Cu2414     Cu  0.64828067  0.89261486  0.62776629     1.04300
C2415       C  0.64250751  0.84279602  0.59003604     0.92900
C2416       C  0.64728292  0.94340513  0.59208741     0.92000
C2417       C  0.69270309  0.89049525  0.56985205     0.84200
C2418       C  0.59385281  0.89600909  0.60787027     0.90400
O2419       O  0.89868667  0.85973227  0.54119211    -0.73300
O2420       O  0.89630534  0.93651582  0.54925597    -0.74300
O2421       O  0.86045552  0.89719036  0.56107518    -0.62900
O2422       O  0.93496617  0.90000399  0.52985758    -0.71300
O2423       O  0.92547213  0.90025040  0.62561771    -0.70900
O2424       O  0.85024316  0.89979161  0.65724116    -0.62100
O2425       O  0.88803174  0.93833065  0.64453339    -0.74600
O2426       O  0.88742676  0.86215090  0.63782161    -0.73400
Cu2427     Cu  0.89798996  0.89817862  0.54774583     1.04600
Cu2428     Cu  0.88747542  0.90019396  0.63884179     1.04300
C2429       C  0.89289674  0.84882506  0.67167563     0.92900
C2430       C  0.89184381  0.94944457  0.68118592     0.92000
C2431       C  0.84357953  0.89863803  0.69762527     0.84200
C2432       C  0.94205346  0.90069311  0.65638448     0.90400
C2433       C  0.81629441  0.89961652  0.54338362    -0.05600
C2434       C  0.80856931  0.91429137  0.57965332    -0.05500
C2435       C  0.78281008  0.91542260  0.59215629    -0.23700
C2436       C  0.76437798  0.90160155  0.56889686     0.18500
C2437       C  0.77196888  0.88677333  0.69887007     0.15700
C2438       C  0.79789301  0.88600434  0.68616149    -0.18700
C2439       C  0.75348932  0.87302641  0.67554932    -0.20600
C2440       C  0.72771325  0.87420567  0.68808098    -0.13100
C2441       C  0.72004836  0.88882549  0.55786287     0.03600
C2442       C  0.73848312  0.90239892  0.58163936    -0.25300
H2443       H  0.82247719  0.92523196  0.59797628     0.08600
H2444       H  0.77733890  0.92697418  0.62018127     0.12200
H2445       H  0.80381182  0.87463964  0.65813951     0.12200
H2446       H  0.75892682  0.86154978  0.64741575     0.11900
H2447       H  0.71374048  0.86349762  0.66947946     0.12500
H2448       H  0.73260478  0.91387596  0.60955226     0.14400
C2449       C  0.89205047  0.82068104  0.66866048    -0.05600
C2450       C  0.87755029  0.80910915  0.63541495    -0.05500
C2451       C  0.87623755  0.78255752  0.63222591    -0.23700
C2452       C  0.88975822  0.76707644  0.66177918     0.18500
C2453       C  0.90446095  0.77846095  0.69535971     0.15700
C2454       C  0.90541384  0.80522186  0.69873294    -0.18700
C2455       C  0.91782370  0.76284535  0.72507983    -0.20600
C2456       C  0.91634731  0.73622818  0.72187348    -0.13100
C2457       C  0.90207421  0.72489244  0.68821486     0.06800
C2458       C  0.88889858  0.74039218  0.65814557    -0.25300
H2459       H  0.86699364  0.82062830  0.61197064     0.08600
H2460       H  0.86486049  0.77413485  0.60634527     0.12200
H2461       H  0.91665086  0.81398445  0.72447854     0.12200
H2462       H  0.92915584  0.77120607  0.75106992     0.11900
H2463       H  0.92667867  0.72447085  0.74526451     0.12500
H2464       H  0.87776335  0.73164540  0.63223155     0.14400
C2465       C  0.64533854  0.81469380  0.59158070    -0.05600
C2466       C  0.66096750  0.80396750  0.62447246    -0.05500
C2467       C  0.66458854  0.77768277  0.62742103    -0.23700
C2468       C  0.65237690  0.76143567  0.59791300     0.18500
C2469       C  0.63670182  0.77181387  0.56437494     0.15700
C2470       C  0.63337959  0.79850932  0.56119043    -0.18700
C2471       C  0.62478332  0.75523480  0.53466179    -0.20600
C2472       C  0.62863843  0.72878742  0.53793685    -0.13100
C2473       C  0.64384978  0.71855728  0.57167417     0.03600
C2474       C  0.65557108  0.73493442  0.60165089    -0.25300
H2475       H  0.67068626  0.81599229  0.64801724     0.08600
H2476       H  0.67673728  0.77004674  0.65315265     0.12200
H2477       H  0.62144231  0.80659830  0.53556983     0.12200
H2478       H  0.61274889  0.76272043  0.50866673     0.11900
H2479       H  0.61941061  0.71626508  0.51457948     0.12500
H2480       H  0.66742068  0.72701308  0.62758482     0.14400
C2481       C  0.72932540  0.65018025  0.60828625    -0.05600
C2482       C  0.74353781  0.66672079  0.58126274    -0.05500
C2483       C  0.76969109  0.67053023  0.58870511    -0.23700
C2484       C  0.78220425  0.65727007  0.62256249     0.18500
C2485       C  0.76797125  0.64071195  0.65016406     0.15700
C2486       C  0.74154084  0.63755332  0.64322625    -0.18700
C2487       C  0.78048539  0.62743429  0.51728626    -0.20600
C2488       C  0.80680321  0.63057422  0.52382075    -0.13100
C2489       C  0.82118320  0.64652138  0.66270433     0.03600
C2490       C  0.80876964  0.65986530  0.62872209    -0.25300
H2491       H  0.73434442  0.67677924  0.55440891     0.08600
H2492       H  0.78026558  0.68329387  0.56722247     0.12200
H2493       H  0.73061594  0.62482791  0.49758098     0.12200
H2494       H  0.76988988  0.61473485  0.53885450     0.11900
H2495       H  0.81606805  0.61998823  0.54999788     0.12500
H2496       H  0.81980513  0.67212162  0.60700296     0.14400
C2497       C  0.89922127  0.07196613  0.48256700    -0.05600
C2498       C  0.91449794  0.05897613  0.61840534    -0.05500
C2499       C  0.91678692  0.03245385  0.61976337    -0.23700
C2500       C  0.90333099  0.01836743  0.65138932     0.18500
C2501       C  0.88815273  0.03119786  0.51642390     0.15700
C2502       C  0.88640180  0.05803396  0.51545854    -0.18700
C2503       C  0.87483131  0.01687046  0.54815318    -0.20600
C2504       C  0.87664586  0.99015969  0.54845417    -0.13100
C2505       C  0.89117017  0.97745992  0.68297807     0.03600
C2506       C  0.90448641  0.99162520  0.65124594    -0.25300
H2507       H  0.92469453  0.06940747  0.59301622     0.08600
H2508       H  0.92856150  0.02291264  0.59535076     0.12200
H2509       H  0.87460996  0.06797229  0.53939429     0.12200
H2510       H  0.86316212  0.02631097  0.57281326     0.11900
H2511       H  0.86621788  0.97936173  0.57310079     0.12500
H2512       H  0.91575154  0.98176955  0.62645357     0.14400
C2513       C  0.89869518  0.56873729  0.49898315    -0.05600
C2514       C  0.91359969  0.55587383  0.63417826    -0.05500
C2515       C  0.91571114  0.52919775  0.63535154    -0.23700
C2516       C  0.90255915  0.51509179  0.50086448     0.18500
C2517       C  0.88679324  0.52800564  0.53158926     0.15700
C2518       C  0.88500547  0.55465024  0.53044401    -0.18700
C2519       C  0.87364600  0.51416469  0.56391984    -0.20600
C2520       C  0.87689110  0.48780639  0.56702635    -0.13100
C2521       C  0.89272731  0.47478581  0.53711328     0.03600
C2522       C  0.90511728  0.48838046  0.67007678    -0.25300
H2523       H  0.92430941  0.56649908  0.60967658     0.08600
H2524       H  0.92775815  0.51964056  0.61135975     0.12200
H2525       H  0.87335982  0.56450547  0.55471852     0.12200
H2526       H  0.86146025  0.52380891  0.58761672     0.11900
H2527       H  0.86688584  0.47751528  0.59281018     0.12500
H2528       H  0.91719642  0.47831236  0.64672424     0.14400
C2529       C  0.89407559  0.22782852  0.62207679    -0.05600
C2530       C  0.91051265  0.24169811  0.64944060    -0.05500
C2531       C  0.91450556  0.26776904  0.64225422    -0.23700
C2532       C  0.90155428  0.28047011  0.60830083     0.18500
C2533       C  0.88471582  0.26665575  0.58091580     0.15700
C2534       C  0.88134406  0.24033168  0.58763290    -0.18700
C2535       C  0.87173915  0.27936624  0.54701138    -0.20600
C2536       C  0.87575357  0.30542969  0.53976966    -0.13100
C2537       C  0.89230225  0.31929665  0.56696146     0.03600
C2538       C  0.90503341  0.30676187  0.60142436    -0.25300
H2539       H  0.92076961  0.23220968  0.50913053     0.08600
H2540       H  0.92744795  0.27805152  0.66358372     0.12200
H2541       H  0.86885412  0.22956701  0.56616990     0.12200
H2542       H  0.85879494  0.26908142  0.52569145     0.11900
H2543       H  0.86554490  0.31487769  0.51335122     0.12500
H2544       H  0.91768388  0.31745062  0.62272320     0.14400
C2545       C  0.64328792  0.06761645  0.60010992    -0.05600
C2546       C  0.62838182  0.05948950  0.56447926    -0.05500
C2547       C  0.62725647  0.03354625  0.55339012    -0.23700
C2548       C  0.64102181  0.01538280  0.57787080     0.18500
C2549       C  0.65659280  0.02370655  0.61302151     0.15700
C2550       C  0.65762319  0.04967018  0.45721883    -0.18700
C2551       C  0.67029087  0.00586332  0.47125326    -0.20600
C2552       C  0.66767350  0.97990257  0.62952337    -0.13100
C2553       C  0.65156295  0.97117986  0.59581416     0.03600
C2554       C  0.63881748  0.98904164  0.56905778    -0.25300
H2555       H  0.61683225  0.07307911  0.54629016     0.08600
H2556       H  0.61521835  0.02765082  0.52635033     0.12200
H2557       H  0.66918090  0.05589794  0.48470951     0.12200
H2558       H  0.68238222  0.01192770  0.49812912     0.11900
H2559       H  0.67793932  0.96649086  0.48363771     0.12500
H2560       H  0.62640026  0.98246630  0.54298240     0.14400
C2561       C  0.71882681  0.14571391  0.48630837    -0.05600
C2562       C  0.72946034  0.16058228  0.51980724    -0.05500
C2563       C  0.75597602  0.16397947  0.52212234    -0.23700
C2564       C  0.77221494  0.15196991  0.49162086     0.18500
C2565       C  0.76159283  0.13645197  0.45841006     0.15700
C2566       C  0.73492341  0.13364207  0.45570974    -0.18700
C2567       C  0.77779446  0.12433187  0.59466975    -0.20600
C2568       C  0.80425929  0.12805194  0.59648420    -0.13100
C2569       C  0.81498699  0.14347024  0.46264506     0.03600
C2570       C  0.79886748  0.15522065  0.49371681    -0.25300
H2571       H  0.71717859  0.17012862  0.54345223     0.08600
H2572       H  0.76378547  0.17589749  0.54783243     0.12200
H2573       H  0.72663775  0.12214441  0.59642701     0.12200
H2574       H  0.76997160  0.11232883  0.56908618     0.11900
H2575       H  0.81640432  0.11863272  0.57249036     0.12500
H2576       H  0.80704357  0.16707046  0.51921761     0.14400
C2577       C  0.65530310  0.56262688  0.59556637    -0.05600
C2578       C  0.66858328  0.54955920  0.62883141    -0.05500
C2579       C  0.66782999  0.52278047  0.63116372    -0.23700
C2580       C  0.65310775  0.50881793  0.60108571     0.18500
C2581       C  0.63913070  0.52212143  0.56839868     0.15700
C2582       C  0.64059301  0.54880584  0.56555523    -0.18700
C2583       C  0.62418261  0.50854033  0.53849440    -0.20600
C2584       C  0.62401292  0.48193700  0.53943436    -0.13100
C2585       C  0.63832920  0.46836589  0.57081024     0.03600
C2586       C  0.65241070  0.48186843  0.60241826    -0.25300
H2587       H  0.67979944  0.56005319  0.65256582     0.08600
H2588       H  0.67856773  0.51302451  0.65662450     0.12200
H2589       H  0.63000509  0.55892225  0.54024893     0.12200
H2590       H  0.61327762  0.51846760  0.51341905     0.11900
H2591       H  0.61304996  0.47182465  0.68150259     0.12500
H2592       H  0.66362910  0.47147077  0.62652171     0.14400
C2593       C  0.81778549  0.40115677  0.55135000    -0.05600
C2594       C  0.80643173  0.41588619  0.51799876    -0.05500
C2595       C  0.77984690  0.41773371  0.51470222    -0.23700
C2596       C  0.76411503  0.40433965  0.54407426     0.18500
C2597       C  0.77532636  0.38963783  0.57812034     0.15700
C2598       C  0.80217284  0.38840340  0.58193394    -0.18700
C2599       C  0.75946456  0.37618094  0.60731137    -0.20600
C2600       C  0.73282336  0.37724328  0.60275836    -0.13100
C2601       C  0.72159061  0.39143763  0.56852156     0.03600
C2602       C  0.73737754  0.40505182  0.53938977    -0.25300
H2603       H  0.81821893  0.42596238  0.49425478     0.08600
H2604       H  0.77161012  0.42912396  0.65516071     0.12200
H2605       H  0.81088362  0.37695903  0.60765191     0.12200
H2606       H  0.76764852  0.36484353  0.63363783     0.11900
H2607       H  0.72099028  0.36658358  0.62564677     0.12500
H2608       H  0.72887112  0.41615231  0.67970832     0.14400
C2609       C  0.63717399  0.21741754  0.51422790    -0.05600
C2610       C  0.62237579  0.22484726  0.55072563    -0.05500
C2611       C  0.62144841  0.25049561  0.56373590    -0.23700
C2612       C  0.63549546  0.26905886  0.54065607     0.18500
C2613       C  0.65059123  0.26158145  0.67078300     0.15700
C2614       C  0.65129604  0.23590775  0.65784402    -0.18700
C2615       C  0.66455199  0.27994190  0.64737112    -0.20600
C2616       C  0.66317924  0.30560099  0.65932021    -0.13100
C2617       C  0.64815943  0.31337925  0.52868410     0.03600
C2618       C  0.63454925  0.29496267  0.55300802    -0.25300
H2619       H  0.61120337  0.21087417  0.56877074     0.08600
H2620       H  0.60975100  0.25580211  0.59177631     0.12200
H2621       H  0.66289377  0.23030000  0.62980962     0.12200
H2622       H  0.67620329  0.27452529  0.61932510     0.11900
H2623       H  0.67388660  0.31947371  0.64021034     0.12500
H2624       H  0.62280104  0.30085309  0.58066702     0.14400
C2625       C  0.06755068  0.14502050  0.63034589    -0.05600
C2626       C  0.05677731  0.13118033  0.59569014    -0.05500
C2627       C  0.03018321  0.13020190  0.59074806    -0.23700
C2628       C  0.01412564  0.14348352  0.45320365     0.18500
C2629       C  0.02497097  0.15798853  0.48752196     0.15700
C2630       C  0.05159548  0.15855879  0.65931491    -0.18700
C2631       C  0.00897888  0.17124054  0.51676679    -0.20600
C2632       C  0.98241104  0.16951245  0.51290073    -0.13100
C2633       C  0.97148284  0.15504323  0.47910078     0.03600
C2634       C  0.98740940  0.14232136  0.44894895    -0.25300
H2635       H  0.06890225  0.12055893  0.57320589     0.08600
H2636       H  0.02219047  0.11901870  0.56424289     0.12200
H2637       H  0.05996662  0.16936532  0.51929059     0.12200
H2638       H  0.01700754  0.18248485  0.54316815     0.11900
H2639       H  0.97036500  0.17956895  0.53627259     0.12500
H2640       H  0.97900641  0.13107270  0.42286594     0.14400
C2641       C  0.47204900  0.15080708  0.56898376    -0.05600
C2642       C  0.48773766  0.16650700  0.54296459    -0.05500
C2643       C  0.51388575  0.16828172  0.55137334    -0.23700
C2644       C  0.52484150  0.15386553  0.58529495     0.18500
C2645       C  0.50924047  0.13792946  0.61175006     0.15700
C2646       C  0.48275936  0.13676881  0.60379638    -0.18700
C2647       C  0.52047980  0.12339926  0.47878599    -0.20600
C2648       C  0.54691059  0.12474978  0.48621262    -0.13100
C2649       C  0.56247816  0.14037922  0.62631768     0.03600
C2650       C  0.55124294  0.15491733  0.59266674    -0.25300
H2651       H  0.47968307  0.17756882  0.51617883     0.08600
H2652       H  0.52562244  0.18050871  0.53074999     0.12200
H2653       H  0.47063331  0.12461454  0.62389483     0.12200
H2654       H  0.50883389  0.11115304  0.49951436     0.11900
H2655       H  0.55520633  0.11335390  0.51233663     0.12500
H2656       H  0.56307578  0.16704655  0.57198395     0.14400
C2657       C  0.22222760  0.14216031  0.51006272    -0.05600
C2658       C  0.23129442  0.12782461  0.54585571    -0.05500
C2659       C  0.25748830  0.12649253  0.55466697    -0.23700
C2660       C  0.27496585  0.13988266  0.52828202     0.18500
C2661       C  0.26599331  0.15443524  0.65887625     0.15700
C2662       C  0.23965480  0.15533492  0.64980209    -0.18700
C2663       C  0.28354856  0.16784495  0.63257978    -0.20600
C2664       C  0.30975456  0.16670802  0.64178794    -0.13100
C2665       C  0.31871183  0.15249854  0.51111974     0.03600
C2666       C  0.30123425  0.13911418  0.53759818    -0.25300
H2667       H  0.21809838  0.11740932  0.56679535     0.08600
H2668       H  0.26404455  0.11522334  0.58238613     0.12200
H2669       H  0.23269683  0.16650996  0.62222862     0.12200
H2670       H  0.27703001  0.17911898  0.60484482     0.11900
H2671       H  0.32300848  0.17729939  0.62123823     0.12500
H2672       H  0.30812248  0.12800133  0.56530545     0.14400
C2673       C  0.97528909  0.39730980  0.54347705    -0.05600
C2674       C  0.99021352  0.41329128  0.57007808    -0.05500
C2675       C  0.01663407  0.41576079  0.56232237    -0.23700
C2676       C  0.02856030  0.40191205  0.69503908     0.18500
C2677       C  0.01364659  0.38529672  0.50236694     0.15700
C2678       C  0.98724671  0.38320506  0.50997298    -0.18700
C2679       C  0.02522142  0.37144476  0.63500960    -0.20600
C2680       C  0.05119805  0.37459926  0.62573674    -0.13100
C2681       C  0.06624935  0.39120436  0.65087401     0.03600
C2682       C  0.05496178  0.40454084  0.68612522    -0.25300
H2683       H  0.98132824  0.42443618  0.59595715     0.08600
H2684       H  0.02771804  0.42849580  0.74947175     0.12200
H2685       H  0.97586776  0.37084586  0.48922887     0.12200
H2686       H  0.01401825  0.35866800  0.44810050     0.11900
H2687       H  0.05959227  0.36398356  0.59872954     0.12500
H2688       H  0.06650099  0.41737137  0.70568251     0.14400
C2689       C  0.14729743  0.31760283  0.62182889    -0.05600
C2690       C  0.16255797  0.30513316  0.59045064    -0.05500
C2691       C  0.16580401  0.27862760  0.59202325    -0.23700
C2692       C  0.15312312  0.26410052  0.62417149     0.18500
C2693       C  0.13753347  0.27650045  0.65575713     0.15700
C2694       C  0.13503169  0.30327356  0.65479189    -0.18700
C2695       C  0.12472867  0.26186222  0.52099443    -0.20600
C2696       C  0.12752547  0.23524626  0.52185552    -0.13100
C2697       C  0.14270018  0.22277379  0.65692166     0.03600
C2698       C  0.15548572  0.23736201  0.62482642    -0.25300
H2699       H  0.17229321  0.31600148  0.56506420     0.08600
H2700       H  0.17781458  0.26943627  0.56755747     0.12200
H2701       H  0.12328347  0.31292965  0.67913595     0.12200
H2702       H  0.11269339  0.27101951  0.54545974     0.11900
H2703       H  0.11736151  0.22436020  0.54669944     0.12500
H2704       H  0.16720320  0.22788819  0.60022864     0.14400
C2705       C  0.56482108  0.38586809  0.54259038    -0.05600
C2706       C  0.55201612  0.37072928  0.57385100    -0.05500
C2707       C  0.52540529  0.36909161  0.57402682    -0.23700
C2708       C  0.51102738  0.38301867  0.54350265     0.18500
C2709       C  0.52356368  0.39789118  0.51107294     0.15700
C2710       C  0.55054651  0.39899089  0.51046258    -0.18700
C2711       C  0.50878679  0.41179279  0.48067424    -0.20600
C2712       C  0.48192493  0.41135861  0.48313363    -0.13100
C2713       C  0.46961749  0.39738464  0.51646242     0.03600
C2714       C  0.48426552  0.38294802  0.54600902    -0.25300
H2715       H  0.56264979  0.36025683  0.59860026     0.08600
H2716       H  0.51603595  0.35756151  0.59896401     0.12200
H2717       H  0.56032245  0.41065525  0.48617029     0.12200
H2718       H  0.51798523  0.42320253  0.45540915     0.11900
H2719       H  0.47082517  0.42267489  0.46015940     0.12500
H2720       H  0.47475347  0.37208236  0.57171671     0.14400
C2721       C  0.39223199  0.32421082  0.56164904    -0.05600
C2722       C  0.37794044  0.31291363  0.59559426    -0.05500
C2723       C  0.37629669  0.28626666  0.59877818    -0.23700
C2724       C  0.38939527  0.27067454  0.56858950     0.18500
C2725       C  0.40451630  0.28210656  0.53529119     0.15700
C2726       C  0.40569509  0.30874802  0.53191936    -0.18700
C2727       C  0.41772131  0.26673031  0.67183437    -0.20600
C2728       C  0.41527971  0.24024028  0.67359318    -0.13100
C2729       C  0.40001565  0.22862516  0.53935209     0.03600
C2730       C  0.38741936  0.24391659  0.57066519    -0.25300
H2731       H  0.36738834  0.32468842  0.61868488     0.08600
H2732       H  0.36470831  0.27786597  0.62464207     0.12200
H2733       H  0.41683326  0.31750646  0.67245144     0.12200
H2734       H  0.42945366  0.27522612  0.64624165     0.11900
H2735       H  0.42538463  0.22880171  0.64943703     0.12500
H2736       H  0.37570672  0.23506008  0.59593924     0.14400
C2737       C  0.31516318  0.40562896  0.56929317    -0.05600
C2738       C  0.30716443  0.42037459  0.60540526    -0.05500
C2739       C  0.28130614  0.42179943  0.61707177    -0.23700
C2740       C  0.26298460  0.40820779  0.59322468     0.18500
C2741       C  0.27078107  0.39329905  0.55679715     0.15700
C2742       C  0.29682540  0.39219660  0.54491653    -0.18700
C2743       C  0.25238599  0.37966454  0.53306313    -0.20600
C2744       C  0.22652978  0.38093281  0.54512385    -0.13100
C2745       C  0.21869106  0.39560252  0.58137204     0.03600
C2746       C  0.23702143  0.40916118  0.60539292    -0.25300
H2747       H  0.32095460  0.43094932  0.62463269     0.08600
H2748       H  0.27566944  0.43331767  0.47835653     0.12200
H2749       H  0.30285701  0.38065134  0.68385952     0.12200
H2750       H  0.25798667  0.36808625  0.67182113     0.11900
H2751       H  0.21268881  0.37005243  0.69326281     0.12500
H2752       H  0.23104028  0.42054561  0.63335669     0.14400
C2753       C  0.13425882  0.97351757  0.59540933    -0.05600
C2754       C  0.11876355  0.98868938  0.56802136    -0.05500
C2755       C  0.11710411  0.01507577  0.57409945    -0.23700
C2756       C  0.13136997  0.02690482  0.60711992     0.18500
C2757       C  0.14670745  0.01185401  0.63548261     0.15700
C2758       C  0.14784621  0.98515791  0.62975052    -0.18700
C2759       C  0.16080910  0.02386205  0.66872161    -0.20600
C2760       C  0.15964580  0.05045722  0.67382356    -0.13100
C2761       C  0.14499520  0.06546290  0.64497611     0.03600
C2762       C  0.13088584  0.05359152  0.61169584    -0.25300
H2763       H  0.10795449  0.98010905  0.54160390     0.08600
H2764       H  0.10520865  0.02631364  0.55216293     0.12200
H2765       H  0.15978198  0.97358772  0.65113033     0.12200
H2766       H  0.17256726  0.01268173  0.69094606     0.11900
H2767       H  0.17067328  0.05938913  0.69962550     0.12500
H2768       H  0.11953575  0.06517492  0.58938849     0.14400
C2769       C  0.06038429  0.89257360  0.58768909    -0.05600
C2770       C  0.04484841  0.87731684  0.56097991    -0.05500
C2771       C  0.01842680  0.87571893  0.56894452    -0.23700
C2772       C  0.00710627  0.88995426  0.60296866     0.18500
C2773       C  0.02269833  0.90565189  0.62951684     0.15700
C2774       C  0.04923820  0.90658119  0.62206090    -0.18700
C2775       C  0.01154448  0.91998203  0.49673415    -0.20600
C2776       C  0.98528974  0.91819992  0.67190453    -0.13100
C2777       C  0.96962337  0.90258995  0.64599772     0.03600
C2778       C  0.98054637  0.88874756  0.61107399    -0.25300
H2779       H  0.05323979  0.86632936  0.70110860     0.08600
H2780       H  0.00681896  0.86363179  0.71485717     0.12200
H2781       H  0.06123798  0.91838721  0.64272126     0.12200
H2782       H  0.02321833  0.93208925  0.51737644     0.11900
H2783       H  0.97716367  0.92910704  0.53212535     0.12500
H2784       H  0.96852288  0.87663090  0.59102766     0.14400
C2785       C  0.14227438  0.47494502  0.61313960    -0.05600
C2786       C  0.12807365  0.48916473  0.58238961    -0.05500
C2787       C  0.12819547  0.51599423  0.58346803    -0.23700
C2788       C  0.14287362  0.52901686  0.61484078     0.18500
C2789       C  0.15770352  0.51474149  0.64506257     0.15700
C2790       C  0.15723872  0.48796707  0.64408274    -0.18700
C2791       C  0.17236576  0.52740541  0.50991069    -0.20600
C2792       C  0.17153267  0.55397461  0.51283362    -0.13100
C2793       C  0.15658104  0.56847863  0.65028944     0.03600
C2794       C  0.14268833  0.55595398  0.61721242    -0.25300
H2795       H  0.11652171  0.47954353  0.55805378     0.08600
H2796       H  0.11681235  0.52654387  0.55981610     0.12200
H2797       H  0.16847145  0.47721696  0.50106855     0.12200
H2798       H  0.18384749  0.51672544  0.53326613     0.11900
H2799       H  0.18246447  0.56327348  0.53838108     0.12500
H2800       H  0.13107814  0.56703862  0.59459786     0.14400
C2801       C  0.97825056  0.64241670  0.52125141    -0.05600
C2802       C  0.98934300  0.62746733  0.55460918    -0.05500
C2803       C  0.01600372  0.62483229  0.55735888    -0.23700
C2804       C  0.03200913  0.63757866  0.52737026     0.18500
C2805       C  0.02092178  0.65281035  0.66059818     0.15700
C2806       C  0.99418317  0.65493963  0.65754548    -0.18700
C2807       C  0.03674025  0.66561887  0.63058629    -0.20600
C2808       C  0.06330856  0.66316595  0.63323571    -0.13100
C2809       C  0.07463573  0.64822837  0.49976243     0.03600
C2810       C  0.05885707  0.63551286  0.53028295    -0.25300
H2811       H  0.97736189  0.61752309  0.57821092     0.08600
H2812       H  0.02410197  0.61306903  0.58321076     0.12200
H2813       H  0.98576149  0.66652530  0.63171825     0.12200
H2814       H  0.02855659  0.67735973  0.60477408     0.11900
H2815       H  0.07506049  0.67325006  0.60946614     0.12500
H2816       H  0.06742605  0.62394017  0.55596576     0.14400
C2817       C  0.13951576  0.81929414  0.54069142    -0.05600
C2818       C  0.12537203  0.81063690  0.50449501    -0.05500
C2819       C  0.12514918  0.78473106  0.49342756    -0.23700
C2820       C  0.13940436  0.76703804  0.51795642     0.18500
C2821       C  0.15375012  0.77556457  0.55442707     0.15700
C2822       C  0.15360803  0.80161469  0.56570476    -0.18700
C2823       C  0.16795597  0.75786547  0.57903672    -0.20600
C2824       C  0.16763614  0.73194704  0.56809119    -0.13100
C2825       C  0.15351278  0.72331854  0.53189198     0.03600
C2826       C  0.13953201  0.74097739  0.50670545    -0.25300
H2827       H  0.11423272  0.82393243  0.48492316     0.08600
H2828       H  0.11398061  0.77857345  0.46547509     0.12200
H2829       H  0.16467355  0.80816985  0.59353781     0.12200
H2830       H  0.17910823  0.76401907  0.60701076     0.11900
H2831       H  0.17865951  0.71859788  0.58774433     0.12500
H2832       H  0.12844404  0.73436741  0.47893465     0.14400
C2833       C  0.39445032  0.07170327  0.54208287    -0.05600
C2834       C  0.40926339  0.05799510  0.51151077    -0.05500
C2835       C  0.41060266  0.03135609  0.51359279    -0.23700
C2836       C  0.39672454  0.01798390  0.54573909     0.18500
C2837       C  0.38145006  0.03158218  0.57627094     0.15700
C2838       C  0.38052505  0.05836725  0.57439197    -0.18700
C2839       C  0.36769655  0.01816085  0.60858007    -0.20600
C2840       C  0.36959393  0.99153751  0.61131844    -0.13100
C2841       C  0.38465377  0.97794220  0.58100956     0.03600
C2842       C  0.39796916  0.99124789  0.54798908    -0.25300
H2843       H  0.42021198  0.06792074  0.48645490     0.08600
H2844       H  0.42235359  0.02120510  0.48988805     0.12200
H2845       H  0.36905503  0.06882718  0.59813339     0.12200
H2846       H  0.35594189  0.02828834  0.63230460     0.11900
H2847       H  0.35914323  0.98153211  0.63690124     0.12500
H2848       H  0.40968368  0.98080607  0.52456165     0.14400
C2849       C  0.47008449  0.90824778  0.59354399    -0.05600
C2850       C  0.48220851  0.92327723  0.56141473    -0.05500
C2851       C  0.50884904  0.92539859  0.56032289    -0.23700
C2852       C  0.52390306  0.91188315  0.59057811     0.18500
C2853       C  0.51198102  0.89706846  0.62371822     0.15700
C2854       C  0.48501812  0.89565146  0.62542771    -0.18700
C2855       C  0.52731200  0.88344258  0.65367314    -0.20600
C2856       C  0.55413246  0.88399218  0.65006882    -0.13100
C2857       C  0.56595969  0.89786474  0.61608716     0.03600
C2858       C  0.55069667  0.91217803  0.58704476    -0.25300
H2859       H  0.47100555  0.93325380  0.53679993     0.08600
H2860       H  0.51771865  0.93687929  0.53479451     0.12200
H2861       H  0.47573453  0.88399974  0.65030682     0.12200
H2862       H  0.51855817  0.87206628  0.67944336     0.11900
H2863       H  0.56556880  0.87279902  0.67273798     0.12500
H2864       H  0.55970837  0.92304288  0.56082988     0.14400
C2865       C  0.21722439  0.89928405  0.55547134    -0.05600
C2866       C  0.22918703  0.91386433  0.52247077    -0.05500
C2867       C  0.25600034  0.91552569  0.52042960    -0.23700
C2868       C  0.27128615  0.90226497  0.55088959     0.18500
C2869       C  0.25933994  0.88713739  0.58357618     0.15700
C2870       C  0.23251754  0.88580989  0.58568612    -0.18700
C2871       C  0.27437857  0.87397442  0.61431662    -0.20600
C2872       C  0.30099992  0.87646768  0.61375191    -0.13100
C2873       C  0.31314810  0.89152914  0.58168145     0.03600
C2874       C  0.29823252  0.90407711  0.54973262    -0.25300
H2875       H  0.21780216  0.92439609  0.66547299     0.08600
H2876       H  0.26478023  0.92717632  0.66170681     0.12200
H2877       H  0.22351998  0.87437862  0.61118343     0.12200
H2878       H  0.26550334  0.86229137  0.63956653     0.11900
H2879       H  0.31217796  0.86659192  0.63851697     0.12500
H2880       H  0.30752157  0.91580702  0.52496870     0.14400
C2881       C  0.40984901  0.57396529  0.68018886    -0.05600
C2882       C  0.42367057  0.56400798  0.54913740    -0.05500
C2883       C  0.42347479  0.53780141  0.55791171    -0.23700
C2884       C  0.40890779  0.52132573  0.53182474     0.18500
C2885       C  0.39488567  0.53128767  0.49592628     0.15700
C2886       C  0.39568846  0.55753441  0.65337188    -0.18700
C2887       C  0.38014540  0.51484810  0.63676004    -0.20600
C2888       C  0.37944936  0.48873789  0.47950518    -0.13100
C2889       C  0.39322677  0.47869595  0.51522123     0.03600
C2890       C  0.40793877  0.49510903  0.54128494    -0.25300
H2891       H  0.43464562  0.57653767  0.57013708     0.08600
H2892       H  0.43432206  0.53049321  0.58554379     0.12200
H2893       H  0.38477655  0.56529679  0.62613400     0.12200
H2894       H  0.36926285  0.52216644  0.60917409     0.11900
H2895       H  0.36800762  0.47637860  0.62560437     0.12500
H2896       H  0.41876456  0.48746970  0.56871234     0.14400
C2897       C  0.57496366  0.63605454  0.55986515    -0.05600
C2898       C  0.55858445  0.62176093  0.58699164    -0.05500
C2899       C  0.53214027  0.62196274  0.57984001    -0.23700
C2900       C  0.52165302  0.63707061  0.54622145     0.18500
C2901       C  0.53802655  0.65142133  0.51850904     0.15700
C2902       C  0.56464304  0.65056624  0.52520292    -0.18700
C2903       C  0.52745412  0.66644465  0.65146836    -0.20600
C2904       C  0.50089633  0.66701111  0.64497973    -0.13100
C2905       C  0.48458588  0.65317358  0.67292444     0.03600
C2906       C  0.49504431  0.63831395  0.54022696    -0.25300
H2907       H  0.56627378  0.61049821  0.61383556     0.08600
H2908       H  0.51983401  0.61087781  0.60137313     0.12200
H2909       H  0.57726818  0.66173239  0.67099431     0.12200
H2910       H  0.53972633  0.67746670  0.62978716     0.11900
H2911       H  0.49305341  0.67850140  0.61855646     0.12500
H2912       H  0.48243755  0.62747303  0.56167687     0.14400
C2913       C  0.23203879  0.64936178  0.67580236    -0.05600
C2914       C  0.24341196  0.66438054  0.54168327    -0.05500
C2915       C  0.26994614  0.66763658  0.54251086    -0.23700
C2916       C  0.28555767  0.65525860  0.51154786     0.18500
C2917       C  0.27429177  0.63986105  0.64552092     0.15700
C2918       C  0.24750352  0.63727705  0.64415709    -0.18700
C2919       C  0.29003502  0.62740526  0.61475589    -0.20600
C2920       C  0.31666590  0.63040385  0.61612754    -0.13100
C2921       C  0.32796619  0.64544238  0.64885170     0.03600
C2922       C  0.31226837  0.65783104  0.51310658    -0.25300
H2923       H  0.23167454  0.67400578  0.56603799     0.08600
H2924       H  0.27829048  0.67952008  0.56777181     0.12200
H2925       H  0.23869504  0.62571166  0.61889270     0.12200
H2926       H  0.28174222  0.61551911  0.58945318     0.11900
H2927       H  0.32846633  0.62059822  0.59209497     0.12500
H2928       H  0.32086246  0.66951299  0.53843708     0.14400
C2929       C  0.39990293  0.82172576  0.59352827    -0.05600
C2930       C  0.41592344  0.80868236  0.56389268    -0.05500
C2931       C  0.41966529  0.78226869  0.56791740    -0.23700
C2932       C  0.40690444  0.76846560  0.60095857     0.18500
C2933       C  0.39031075  0.78150162  0.63024638     0.15700
C2934       C  0.38712338  0.80801623  0.62658848    -0.18700
C2935       C  0.37744257  0.76788745  0.66321476    -0.20600
C2936       C  0.38164514  0.74171815  0.66821605    -0.13100
C2937       C  0.39827105  0.72858117  0.63969504     0.03600
C2938       C  0.41053563  0.74194111  0.60551231    -0.25300
H2939       H  0.42594784  0.81901270  0.53819126     0.08600
H2940       H  0.43236239  0.77262452  0.54503193     0.12200
H2941       H  0.37466094  0.81801700  0.64945868     0.12200
H2942       H  0.36462604  0.77758814  0.68584466     0.11900
H2943       H  0.37178629  0.73167015  0.69444231     0.12500
H2944       H  0.42326570  0.73184162  0.58323560     0.14400
O2945       O  0.41037811  0.61037121  0.79993874    -0.73300
O2946       O  0.40619064  0.68629826  0.77991163    -0.74300
O2947       O  0.44689322  0.65080640  0.79571175    -0.62900
O2948       O  0.37011597  0.64545928  0.78432546    -0.71300
O2949       O  0.36619629  0.65162097  0.68941360    -0.70900
O2950       O  0.44227113  0.65649945  0.70084652    -0.62100
O2951       O  0.40145006  0.69183039  0.68503266    -0.74600
O2952       O  0.40669979  0.61663942  0.70509273    -0.73400
Cu2953     Cu  0.40861785  0.64807804  0.78735401     1.04600
Cu2954     Cu  0.40407523  0.65442405  0.69746381     1.04300
C2955       C  0.40909106  0.60161348  0.83907952     0.92900
C2956       C  0.40242691  0.70095370  0.81282093     0.92000
C2957       C  0.45661858  0.65381920  0.83378706     0.84200
C2958       C  0.35608318  0.64762697  0.81863215     0.90400
O2959       O  0.38632566  0.93865644  0.78755631    -0.73300
O2960       O  0.39410636  0.86240733  0.79306436    -0.74300
O2961       O  0.42883356  0.90409315  0.79407506    -0.62900
O2962       O  0.35225804  0.89639962  0.78701081    -0.71300
O2963       O  0.35440856  0.89544005  0.71430298    -0.70900
O2964       O  0.43103570  0.90325656  0.72136238    -0.62100
O2965       O  0.39713500  0.86094992  0.72044688    -0.74600
O2966       O  0.38922470  0.93708027  0.71493043    -0.73400
Cu2967     Cu  0.39029180  0.90046464  0.79296304     1.04600
Cu2968     Cu  0.39300089  0.89909364  0.71524550     1.04300
C2969       C  0.38671313  0.94990142  0.75025700     0.92900
C2970       C  0.39691374  0.84966142  0.75767855     0.92000
C2971       C  0.44200538  0.90499505  0.75865098     0.84200
C2972       C  0.34124939  0.89465982  0.74977423     0.90400
O2973       O  0.15408245  0.61181341  0.79083008    -0.73300
O2974       O  0.15392107  0.68804284  0.81518359    -0.74300
O2975       O  0.19252333  0.64969672  0.80411262    -0.62900
O2976       O  0.11598766  0.65061218  0.80069102    -0.71300
O2977       O  0.11408324  0.64154837  0.70511974    -0.70900
O2978       O  0.19127493  0.64372002  0.70960726    -0.62100
O2979       O  0.15186140  0.67980334  0.71993385    -0.74600
O2980       O  0.15441623  0.60491788  0.69601978    -0.73400
Cu2981     Cu  0.15415688  0.65025535  0.80015733     1.04600
Cu2982     Cu  0.15279125  0.64214303  0.71007490     1.04300
C2983       C  0.15478925  0.59639240  0.82349549     0.92900
C2984       C  0.15297473  0.69579960  0.68832530     0.92000
C2985       C  0.20398620  0.64724460  0.84082021     0.84200
C2986       C  0.10287290  0.64648840  0.66875543     0.90400
O2987       O  0.13725531  0.86314648  0.68732594    -0.73300
O2988       O  0.13358472  0.93774565  0.71432335    -0.74300
O2989       O  0.17437823  0.90310698  0.69370038    -0.62900
O2990       O  0.09742406  0.89752172  0.70890220    -0.71300
O2991       O  0.10318375  0.89090704  0.78019440    -0.70900
O2992       O  0.17921462  0.89312531  0.76397041    -0.62100
O2993       O  0.14077713  0.93000015  0.78482132    -0.74600
O2994       O  0.14188173  0.85419298  0.75806033    -0.73400
Cu2995     Cu  0.13555657  0.90069206  0.69861887     1.04600
Cu2996     Cu  0.14146360  0.89175966  0.77421254     1.04300
C2997       C  0.13965313  0.84681517  0.71823324     0.92900
C2998       C  0.13642776  0.94578403  0.75352741     0.92000
C2999       C  0.18893725  0.89853111  0.72658705     0.84200
C3000       C  0.08829655  0.89363490  0.74734342     0.90400
O3001       O  0.35010484  0.39840893  0.68594849    -0.73300
O3002       O  0.42608715  0.39793374  0.65838582    -0.74300
O3003       O  0.38933799  0.36059261  0.68264704    -0.62900
O3004       O  0.38686915  0.43560191  0.66059793    -0.71300
O3005       O  0.39811037  0.44272163  0.72963513    -0.70900
O3006       O  0.39460155  0.36716380  0.75400480    -0.62100
O3007       O  0.43368875  0.40179846  0.72968293    -0.74600
O3008       O  0.35910325  0.40820595  0.75495643    -0.73400
Cu3009     Cu  0.38776641  0.39787733  0.66941065     1.04600
Cu3010     Cu  0.39666082  0.40523621  0.74449254     1.04300
C3011       C  0.34272058  0.40396152  0.72491806     0.92900
C3012       C  0.44180649  0.39921636  0.69039229     0.92000
C3013       C  0.39200753  0.35197363  0.72157901     0.84200
C3014       C  0.39266023  0.45106057  0.69126124     0.90400
O3015       O  0.18518186  0.39715553  0.80153509    -0.73300
O3016       O  0.11042857  0.39673711  0.83615828    -0.74300
O3017       O  0.14854502  0.35855557  0.82199986    -0.62900
O3018       O  0.14748718  0.43503887  0.81628361    -0.71300
O3019       O  0.13550796  0.43385849  0.74657527    -0.70900
O3020       O  0.13958098  0.35676828  0.75089214    -0.62100
O3021       O  0.10031422  0.39332909  0.76578628    -0.74600
O3022       O  0.17429451  0.39609451  0.73126609    -0.73400
Cu3023     Cu  0.14822986  0.39698370  0.82140965     1.04600
Cu3024     Cu  0.13696940  0.39505761  0.74624875     1.04300
C3025       C  0.19146543  0.39644441  0.76093949     0.92900
C3026       C  0.09360765  0.39420036  0.80612332     0.92000
C3027       C  0.14482573  0.34560915  0.78715111     0.84200
C3028       C  0.14157027  0.44662534  0.78076652     0.90400
O3029       O  0.35323919  0.15130367  0.72826000    -0.73300
O3030       O  0.42813899  0.14924080  0.75717020    -0.74300
O3031       O  0.39171615  0.18886264  0.74224362    -0.62900
O3032       O  0.38945783  0.11218050  0.74315073    -0.71300
O3033       O  0.39934559  0.11176785  0.67224519    -0.70900
O3034       O  0.40151743  0.18812177  0.67131175    -0.62100
O3035       O  0.43737055  0.14938150  0.68596477    -0.74600
O3036       O  0.36272121  0.15143371  0.82385629    -0.73400
Cu3037     Cu  0.39027048  0.15040376  0.74518663     1.04600
Cu3038     Cu  0.40048441  0.15008528  0.83589956     1.04300
C3039       C  0.34617819  0.15174094  0.68818625     0.92900
C3040       C  0.44455076  0.14946020  0.72594755     0.92000
C3041       C  0.39746643  0.20056660  0.70665678     0.84200
C3042       C  0.39427392  0.09986496  0.70791813     0.90400
O3043       O  0.14861415  0.18331080  0.78618099    -0.73300
O3044       O  0.14855142  0.10682602  0.78010705    -0.74300
O3045       O  0.11081415  0.14528922  0.77193870    -0.62900
O3046       O  0.18655691  0.14480385  0.79495856    -0.71300
O3047       O  0.17876073  0.14247997  0.69984576    -0.70900
O3048       O  0.10359295  0.14344402  0.67705952    -0.62100
O3049       O  0.14161302  0.10442900  0.68526389    -0.74600
O3050       O  0.14058820  0.18151772  0.69098923    -0.73400
Cu3051     Cu  0.14893619  0.14513963  0.78082729     1.04600
Cu3052     Cu  0.14090984  0.14291135  0.69079299     1.04300
C3053       C  0.14419160  0.19455512  0.82260139     0.92900
C3054       C  0.14508327  0.09355741  0.81486226     0.92000
C3055       C  0.09530026  0.14457278  0.80445594     0.84200
C3056       C  0.19455913  0.14329946  0.83447373     0.90400
O3057       O  0.60663846  0.39219185  0.84458429    -0.73300
O3058       O  0.68358293  0.39605511  0.85872359    -0.74300
O3059       O  0.64810340  0.35680002  0.84052927    -0.62900
O3060       O  0.64229433  0.43137809  0.86090031    -0.71300
O3061       O  0.64009693  0.42539059  0.76627413    -0.70900
O3062       O  0.64248798  0.34868778  0.74475577    -0.62100
O3063       O  0.67923118  0.38710574  0.76291533    -0.74600
O3064       O  0.60338617  0.38601831  0.74979068    -0.73400
Cu3065     Cu  0.64530997  0.39436962  0.84876936     1.04600
Cu3066     Cu  0.64114140  0.38662688  0.75850118     1.04300
C3067       C  0.59293104  0.38829477  0.71218839     0.92900
C3068       C  0.69349230  0.39167052  0.72973820     0.92000
C3069       C  0.64609149  0.34087045  0.70541997     0.84200
C3070       C  0.64040352  0.44037498  0.73292464     0.90400
O3071       O  0.60452862  0.14947125  0.76761950    -0.73300
O3072       O  0.68076285  0.14798993  0.77769065    -0.74300
O3073       O  0.64263604  0.11233803  0.75232684    -0.62900
O3074       O  0.64236099  0.18525349  0.79292909    -0.71300
O3075       O  0.63494918  0.17254744  0.69457311    -0.70900
O3076       O  0.64264753  0.09972965  0.65516266    -0.62100
O3077       O  0.67701228  0.13884033  0.68195241    -0.74600
O3078       O  0.60061492  0.13349335  0.66812957    -0.73400
Cu3079     Cu  0.64271024  0.14920858  0.77031207     1.04600
Cu3080     Cu  0.63870433  0.13567466  0.67735068     1.04300
C3081       C  0.59050182  0.14116253  0.63227437     0.92900
C3082       C  0.69090539  0.14393599  0.64845777     0.92000
C3083       C  0.64293571  0.09449951  0.61422345     0.84200
C3084       C  0.63811582  0.19048393  0.66660331     0.90400
O3085       O  0.89528599  0.43702579  0.74638871    -0.73300
O3086       O  0.89810280  0.36130947  0.76101901    -0.74300
O3087       O  0.93583953  0.40055261  0.75097332    -0.62900
O3088       O  0.85812349  0.39837474  0.75526031    -0.71300
O3089       O  0.85788029  0.39731622  0.68246546    -0.70900
O3090       O  0.93392977  0.39268806  0.67957516    -0.62100
O3091       O  0.89348974  0.35678030  0.68909240    -0.74600
O3092       O  0.89758529  0.43296714  0.67397825    -0.73400
Cu3093     Cu  0.89699923  0.39941209  0.75605873     1.04600
Cu3094     Cu  0.89581096  0.39469159  0.67883161     1.04300
C3095       C  0.89567638  0.44697475  0.70811169     0.92900
C3096       C  0.89503775  0.34706127  0.72753091     0.92000
C3097       C  0.94705365  0.39671674  0.71410697     0.84200
C3098       C  0.84589440  0.39862261  0.71892647     0.90400
O3099       O  0.89296957  0.11369277  0.67971483    -0.73300
O3100       O  0.89106176  0.19027168  0.66598632    -0.74300
O3101       O  0.85346973  0.15072359  0.66888660    -0.62900
O3102       O  0.92983513  0.15380014  0.67728208    -0.71300
O3103       O  0.93304105  0.15053245  0.77153674    -0.70900
O3104       O  0.85662520  0.14462494  0.76371525    -0.62100
O3105       O  0.89231573  0.18574938  0.76026246    -0.74600
O3106       O  0.89781577  0.11013565  0.77430021    -0.73400
Cu3107     Cu  0.89161813  0.15226719  0.67552811     1.04600
Cu3108     Cu  0.89494841  0.14765873  0.76495383     1.04300
C3109       C  0.89640007  0.09990210  0.64557537     0.92900
C3110       C  0.89198124  0.20000186  0.62750637     0.92000
C3111       C  0.84299102  0.14656876  0.63179456     0.84200
C3112       C  0.94347530  0.15301983  0.64243463     0.90400
O3113       O  0.65160819  0.60409209  0.79339121    -0.73300
O3114       O  0.64510424  0.68028504  0.78053613    -0.74300
O3115       O  0.61063355  0.63840782  0.77488682    -0.62900
O3116       O  0.68603663  0.64581901  0.79888324    -0.71300
O3117       O  0.69381624  0.64367134  0.72732324    -0.70900
O3118       O  0.61852873  0.63637829  0.70333238    -0.62100
O3119       O  0.65249064  0.67745674  0.70886523    -0.74600
O3120       O  0.65882219  0.60137013  0.72168088    -0.73400
Cu3121     Cu  0.64810933  0.64224386  0.78942772     1.04600
Cu3122     Cu  0.65633577  0.63949506  0.71289226     1.04300
C3123       C  0.65566642  0.59068664  0.75912473     0.92900
C3124       C  0.64733590  0.69079056  0.74276835     0.92000
C3125       C  0.60268539  0.63674954  0.73535257     0.84200
C3126       C  0.70178405  0.64626906  0.76668869     0.90400
O3127       O  0.93593465  0.64239484  0.71806779    -0.73300
O3128       O  0.85926316  0.64651974  0.70585363    -0.74300
O3129       O  0.89592079  0.60713824  0.70600936    -0.62900
O3130       O  0.89952978  0.68296221  0.71828839    -0.71300
O3131       O  0.90190428  0.68688706  0.81249791    -0.70900
O3132       O  0.90194590  0.61046066  0.80072943    -0.62100
O3133       O  0.86353990  0.64944134  0.80019112    -0.74600
O3134       O  0.94012847  0.64812595  0.81290281    -0.73400
Cu3135     Cu  0.89749276  0.64472649  0.71456052     1.04600
Cu3136     Cu  0.90201014  0.64891541  0.80404300     1.04300
C3137       C  0.95011906  0.64448263  0.68395900     0.92900
C3138       C  0.84930539  0.64785852  0.83431079     0.92000
C3139       C  0.89875121  0.59676761  0.66844619     0.84200
C3140       C  0.90113467  0.69693137  0.85062968     0.90400
O3141       O  0.63675968  0.85472990  0.72124431    -0.73300
O3142       O  0.64187639  0.93264082  0.72218424    -0.74300
O3143       O  0.67604873  0.89087199  0.70602713    -0.62900
O3144       O  0.60173697  0.89654630  0.73489293    -0.71300
O3145       O  0.60983855  0.89381554  0.80614388    -0.70900
O3146       O  0.68576106  0.89152713  0.77683093    -0.62100
O3147       O  0.64971188  0.93009615  0.79355493    -0.74600
O3148       O  0.64716833  0.85507894  0.79173230    -0.73400
Cu3149     Cu  0.63863994  0.89374072  0.71855968     1.04600
Cu3150     Cu  0.64827620  0.89259305  0.79444185     1.04300
C3151       C  0.64249904  0.84277392  0.75671188     0.92900
C3152       C  0.64728330  0.94338360  0.75876084     0.92000
C3153       C  0.69269655  0.89047014  0.73652215     0.84200
C3154       C  0.59384840  0.89599349  0.77455271     0.90400
O3155       O  0.89868058  0.85971658  0.70785473    -0.73300
O3156       O  0.89629746  0.93650033  0.71593516    -0.74300
O3157       O  0.86044806  0.89717210  0.72774225    -0.62900
O3158       O  0.93496144  0.89998941  0.69653436    -0.71300
O3159       O  0.92546885  0.90025546  0.79227869    -0.70900
O3160       O  0.85024047  0.89977903  0.82389446    -0.62100
O3161       O  0.88801972  0.93832757  0.81119820    -0.74600
O3162       O  0.88743248  0.86214577  0.80447703    -0.73400
Cu3163     Cu  0.89798342  0.89816235  0.71441722     1.04600
Cu3164     Cu  0.88747247  0.90018999  0.80550014     1.04300
C3165       C  0.89290597  0.84882054  0.83833038     0.92900
C3166       C  0.89182701  0.94944030  0.84785369     0.92000
C3167       C  0.84357614  0.89862267  0.86427763     0.84200
C3168       C  0.94204995  0.90070252  0.82304522     0.90400
C3169       C  0.81628733  0.89959914  0.71004727    -0.05600
C3170       C  0.80856126  0.91427467  0.74631540    -0.05500
C3171       C  0.78280195  0.91540508  0.75881821    -0.23700
C3172       C  0.76437045  0.90158227  0.73556048     0.18500
C3173       C  0.77196494  0.88676063  0.86552168     0.15700
C3174       C  0.79788944  0.88598766  0.85281539    -0.18700
C3175       C  0.75348452  0.87301127  0.84220654    -0.20600
C3176       C  0.72770855  0.87419358  0.85473824    -0.13100
C3177       C  0.72004163  0.88880198  0.72453073     0.03600
C3178       C  0.73847578  0.90237769  0.74830467    -0.25300
H3179       H  0.82246871  0.92521612  0.76463802     0.08600
H3180       H  0.77733027  0.92695707  0.78684246     0.12200
H3181       H  0.80380831  0.87461908  0.82479784     0.12200
H3182       H  0.75892147  0.86153015  0.81407860     0.11900
H3183       H  0.71373497  0.86348243  0.83614248     0.12500
H3184       H  0.73259714  0.91385499  0.77621728     0.14400
C3185       C  0.89206336  0.82067616  0.83531702    -0.05600
C3186       C  0.87755650  0.80910182  0.80208254    -0.05500
C3187       C  0.87624295  0.78254996  0.79890047    -0.23700
C3188       C  0.88976970  0.76707091  0.82844914     0.18500
C3189       C  0.90447976  0.77845769  0.86201817     0.15700
C3190       C  0.90543340  0.80521903  0.86538449    -0.18700
C3191       C  0.91784767  0.76284360  0.89173477    -0.20600
C3192       C  0.91637027  0.73622593  0.88853458    -0.13100
C3193       C  0.90209044  0.72488822  0.85488624     0.06800
C3194       C  0.88890878  0.74038641  0.82482227    -0.25300
H3195       H  0.86699457  0.82061956  0.77864285     0.08600
H3196       H  0.86486014  0.77412524  0.77302842     0.12200
H3197       H  0.91667495  0.81398362  0.89112272     0.12200
H3198       H  0.92918449  0.77120596  0.91771756     0.11900
H3199       H  0.92670576  0.72446963  0.91192232     0.12500
H3200       H  0.87776842  0.73163808  0.79891637     0.14400
C3201       C  0.64533266  0.81467180  0.75825329    -0.05600
C3202       C  0.66096294  0.80394548  0.79114306    -0.05500
C3203       C  0.66458896  0.77766106  0.79408483    -0.23700
C3204       C  0.65238039  0.76141415  0.76457253     0.18500
C3205       C  0.63670500  0.77179254  0.73103532     0.15700
C3206       C  0.63337813  0.79848773  0.72785707    -0.18700
C3207       C  0.62479004  0.75521391  0.70131731    -0.20600
C3208       C  0.62864714  0.72876665  0.70458885    -0.13100
C3209       C  0.64385760  0.71853610  0.73832682     0.03600
C3210       C  0.65557719  0.73491288  0.76830642    -0.25300
H3211       H  0.67067924  0.81597015  0.81469148     0.08600
H3212       H  0.67673847  0.77002501  0.81981494     0.12200
H3213       H  0.62144094  0.80657675  0.70223633     0.12200
H3214       H  0.61275610  0.76269966  0.67532229     0.11900
H3215       H  0.61942052  0.71624491  0.68122937     0.12500
H3216       H  0.66742637  0.72699129  0.79424070     0.14400
C3217       C  0.72933697  0.65017265  0.77494497    -0.05600
C3218       C  0.74354589  0.66672340  0.74793417    -0.05500
C3219       C  0.76969863  0.67053650  0.75537939    -0.23700
C3220       C  0.78221467  0.65727029  0.78922695     0.18500
C3221       C  0.76798491  0.64070175  0.81681504     0.15700
C3222       C  0.74155515  0.63753948  0.80987494    -0.18700
C3223       C  0.78047622  0.62742182  0.68397645    -0.20600
C3224       C  0.80679428  0.63055999  0.69051475    -0.13100
C3225       C  0.82119556  0.64651850  0.82936206     0.03600
C3226       C  0.80877981  0.65986910  0.79538952    -0.25300
H3227       H  0.73435046  0.67678611  0.72108784     0.08600
H3228       H  0.78027034  0.68330800  0.73390616     0.12200
H3229       H  0.73060761  0.62481704  0.66425776     0.12200
H3230       H  0.76987927  0.61472057  0.70553950     0.11900
H3231       H  0.81605823  0.61997108  0.71668942     0.12500
H3232       H  0.81981315  0.67213298  0.77368032     0.14400
C3233       C  0.89921534  0.07195593  0.64925180    -0.05600
C3234       C  0.91448580  0.05897724  0.78511369    -0.05500
C3235       C  0.91677546  0.03245530  0.78646792    -0.23700
C3236       C  0.90331365  0.01836626  0.81808249     0.18500
C3237       C  0.88814857  0.03118693  0.68311263     0.15700
C3238       C  0.88640022  0.05802384  0.68214971    -0.18700
C3239       C  0.87483124  0.01685899  0.71484687    -0.20600
C3240       C  0.87664422  0.99014761  0.71514543    -0.13100
C3241       C  0.89114856  0.97745545  0.84965206     0.03600
C3242       C  0.90447006  0.99162424  0.81793200    -0.25300
H3243       H  0.92468743  0.06941033  0.75973232     0.08600
H3244       H  0.92855556  0.02291629  0.76206098     0.12200
H3245       H  0.87461336  0.06796287  0.70609212     0.12200
H3246       H  0.86316638  0.02629965  0.73951267     0.11900
H3247       H  0.86621965  0.97934977  0.73979663     0.12500
H3248       H  0.91574071  0.98177126  0.79314330     0.14400
C3249       C  0.89868618  0.56872621  0.66566817    -0.05600
C3250       C  0.91361920  0.55587130  0.80084800    -0.05500
C3251       C  0.91573389  0.52919538  0.80202347    -0.23700
C3252       C  0.90254350  0.51508108  0.66753242     0.18500
C3253       C  0.88679117  0.52799424  0.69827821     0.15700
C3254       C  0.88500660  0.55463899  0.69714159    -0.18700
C3255       C  0.87365483  0.51415232  0.73062035    -0.20600
C3256       C  0.87689983  0.48779375  0.73371870    -0.13100
C3257       C  0.89272491  0.47477447  0.70378662     0.03600
C3258       C  0.90513870  0.48837706  0.83674552    -0.25300
H3259       H  0.92433185  0.56649784  0.77635071     0.08600
H3260       H  0.92778558  0.51963926  0.77803798     0.12200
H3261       H  0.87337145  0.56449379  0.72143105     0.12200
H3262       H  0.86147891  0.52379582  0.75433214     0.11900
H3263       H  0.86690374  0.47750190  0.75951214     0.12500
H3264       H  0.91722199  0.47830965  0.81339898     0.14400
C3265       C  0.89407820  0.22782501  0.78875782    -0.05600
C3266       C  0.91051376  0.24169509  0.81612332    -0.05500
C3267       C  0.91450836  0.26776541  0.80893365    -0.23700
C3268       C  0.90156035  0.28046479  0.77497486     0.18500
C3269       C  0.88472331  0.26664976  0.74758873     0.15700
C3270       C  0.88134990  0.24032651  0.75430933    -0.18700
C3271       C  0.87174876  0.27935872  0.71368038    -0.20600
C3272       C  0.87576478  0.30542134  0.70643458    -0.13100
C3273       C  0.89231270  0.31928874  0.73362658     0.03600
C3274       C  0.90504130  0.30675571  0.76809425    -0.25300
H3275       H  0.92075861  0.23219958  0.67577137     0.08600
H3276       H  0.92744937  0.27804836  0.83026427     0.12200
H3277       H  0.86886086  0.22956133  0.73284602     0.12200
H3278       H  0.85880493  0.26907319  0.69236068     0.11900
H3279       H  0.86555716  0.31486859  0.68001357     0.12500
H3280       H  0.91769048  0.31744510  0.78939363     0.14400
C3281       C  0.64329071  0.06759625  0.76677730    -0.05600
C3282       C  0.62839203  0.05946877  0.73113779    -0.05500
C3283       C  0.62726986  0.03352561  0.72004707    -0.23700
C3284       C  0.64103098  0.01536216  0.74453455     0.18500
C3285       C  0.65659637  0.02368612  0.77969229     0.15700
C3286       C  0.65760895  0.04967180  0.62384575    -0.18700
C3287       C  0.67028717  0.00586913  0.63787807    -0.20600
C3288       C  0.66767331  0.97988142  0.79619993    -0.13100
C3289       C  0.65156639  0.97115851  0.76248556     0.03600
C3290       C  0.63882702  0.98902068  0.73572140    -0.25300
H3291       H  0.61684507  0.07305798  0.71294241     0.08600
H3292       H  0.61523641  0.02762992  0.69300152     0.12200
H3293       H  0.66916690  0.05590146  0.65133500     0.12200
H3294       H  0.68237821  0.01193666  0.66475281     0.11900
H3295       H  0.67794625  0.96649893  0.65026184     0.12500
H3296       H  0.62641328  0.98244545  0.70964125     0.14400
C3297       C  0.71882120  0.14568701  0.65294856    -0.05600
C3298       C  0.72945492  0.16054175  0.68646433    -0.05500
C3299       C  0.75597004  0.16393681  0.68878349    -0.23700
C3300       C  0.77220803  0.15193753  0.65826973     0.18500
C3301       C  0.76158615  0.13643354  0.62503984     0.15700
C3302       C  0.73491671  0.13362625  0.62233522    -0.18700
C3303       C  0.77778656  0.12432375  0.76136692    -0.20600
C3304       C  0.80425062  0.12804902  0.76317914    -0.13100
C3305       C  0.81497950  0.14344861  0.62928791     0.03600
C3306       C  0.79885964  0.15518682  0.66037160    -0.25300
H3307       H  0.71717382  0.17008021  0.71011951     0.08600
H3308       H  0.76377960  0.17584593  0.71450509     0.12200
H3309       H  0.72663057  0.12212575  0.76312486     0.12200
H3310       H  0.76996629  0.11231019  0.73579477     0.11900
H3311       H  0.81639774  0.11862326  0.73919633     0.12500
H3312       H  0.80703474  0.16702719  0.68588621     0.14400
C3313       C  0.65531885  0.56260841  0.76222188    -0.05600
C3314       C  0.66860079  0.54953998  0.79548344    -0.05500
C3315       C  0.66784361  0.52276167  0.79781830    -0.23700
C3316       C  0.65311533  0.50880082  0.76774693     0.18500
C3317       C  0.63913600  0.52210524  0.73506414     0.15700
C3318       C  0.64060209  0.54878925  0.73221779    -0.18700
C3319       C  0.62418240  0.50852547  0.70516586    -0.20600
C3320       C  0.62400931  0.48192219  0.70610824    -0.13100
C3321       C  0.63832759  0.46835061  0.73748069     0.03600
C3322       C  0.65241479  0.48185196  0.76908196    -0.25300
H3323       H  0.67982135  0.56003297  0.81921309     0.08600
H3324       H  0.67858266  0.51300484  0.82327610     0.12200
H3325       H  0.63001221  0.55890659  0.70691564     0.12200
H3326       H  0.61327624  0.51845332  0.68009352     0.11900
H3327       H  0.61307872  0.47181401  0.84813328     0.12500
H3328       H  0.66363577  0.47145337  0.79318154     0.14400
C3329       C  0.81779375  0.40114812  0.71800679    -0.05600
C3330       C  0.80644025  0.41587752  0.68465520    -0.05500
C3331       C  0.77985524  0.41772804  0.68136228    -0.23700
C3332       C  0.76412332  0.40433650  0.71073798     0.18500
C3333       C  0.77533489  0.38963458  0.74478344     0.15700
C3334       C  0.80218116  0.38839765  0.74859375    -0.18700
C3335       C  0.75947374  0.37617935  0.77397756    -0.20600
C3336       C  0.73283263  0.37724326  0.76942838    -0.13100
C3337       C  0.72159932  0.39143762  0.73519254     0.03600
C3338       C  0.73738562  0.40505068  0.70605764    -0.25300
H3339       H  0.81822748  0.42595168  0.66090936     0.08600
H3340       H  0.77161900  0.42911412  0.82182323     0.12200
H3341       H  0.81089168  0.37695355  0.77431201     0.12200
H3342       H  0.76765847  0.36484141  0.80030270     0.11900
H3343       H  0.72099985  0.36658375  0.79231852     0.12500
H3344       H  0.72887980  0.41613901  0.84636677     0.14400
C3345       C  0.63719320  0.21740909  0.68089283    -0.05600
C3346       C  0.62239011  0.22483960  0.71738388    -0.05500
C3347       C  0.62146427  0.25048730  0.73039617    -0.23700
C3348       C  0.63551755  0.26904900  0.70732463     0.18500
C3349       C  0.65058369  0.26156297  0.83745320     0.15700
C3350       C  0.65128527  0.23588882  0.82451467    -0.18700
C3351       C  0.66455118  0.27992102  0.81404674    -0.20600
C3352       C  0.66318085  0.30558081  0.82599349    -0.13100
C3353       C  0.64818519  0.31336817  0.69536020     0.03600
C3354       C  0.63457079  0.29495226  0.71967723    -0.25300
H3355       H  0.61121206  0.21086777  0.73542110     0.08600
H3356       H  0.60976222  0.25579464  0.75843044     0.12200
H3357       H  0.66288551  0.23027889  0.79648427     0.12200
H3358       H  0.67620549  0.27450203  0.78600619     0.11900
H3359       H  0.67389339  0.31945160  0.80688712     0.12500
H3360       H  0.62281755  0.30084303  0.74732978     0.14400
C3361       C  0.06754672  0.14502556  0.79704141    -0.05600
C3362       C  0.05677369  0.13118562  0.76238480    -0.05500
C3363       C  0.03017952  0.13020413  0.75744428    -0.23700
C3364       C  0.01410983  0.14349162  0.61990547     0.18500
C3365       C  0.02495443  0.15799646  0.65422442     0.15700
C3366       C  0.05158991  0.15856102  0.82601299    -0.18700
C3367       C  0.00896150  0.17124734  0.68347014    -0.20600
C3368       C  0.98239352  0.16951856  0.67960232    -0.13100
C3369       C  0.97146706  0.15504983  0.64579994     0.03600
C3370       C  0.98739445  0.14232904  0.61564925    -0.25300
H3371       H  0.06889943  0.12056654  0.73989828     0.08600
H3372       H  0.02218757  0.11902090  0.73093776     0.12200
H3373       H  0.05995029  0.16937407  0.68599115     0.12200
H3374       H  0.01698950  0.18249093  0.70987284     0.11900
H3375       H  0.97034622  0.17957389  0.70297401     0.12500
H3376       H  0.97899256  0.13108037  0.58956531     0.14400
C3377       C  0.47203569  0.15078746  0.73565012    -0.05600
C3378       C  0.48772405  0.16649163  0.70963803    -0.05500
C3379       C  0.51387211  0.16826549  0.71804803    -0.23700
C3380       C  0.52482837  0.15384384  0.75196264     0.18500
C3381       C  0.50922773  0.13790285  0.77840960     0.15700
C3382       C  0.48274651  0.13674312  0.77045543    -0.18700
C3383       C  0.52048003  0.12340353  0.64543567    -0.20600
C3384       C  0.54691006  0.12475701  0.65286370    -0.13100
C3385       C  0.56246552  0.14035202  0.79297970     0.03600
C3386       C  0.55122980  0.15489539  0.75933570    -0.25300
H3387       H  0.47966904  0.17755793  0.68285764     0.08600
H3388       H  0.52560860  0.18049636  0.69743086     0.12200
H3389       H  0.47062060  0.12458589  0.79054845     0.12200
H3390       H  0.50883563  0.11115401  0.66616089     0.11900
H3391       H  0.55520665  0.11335978  0.67898439     0.12500
H3392       H  0.56306237  0.16702869  0.73865926     0.14400
C3393       C  0.22221154  0.14216696  0.67673572    -0.05600
C3394       C  0.23127620  0.12783190  0.71253134    -0.05500
C3395       C  0.25746974  0.12649607  0.72134289    -0.23700
C3396       C  0.27494921  0.13988204  0.69495580     0.18500
C3397       C  0.26599813  0.15443326  0.82555511     0.15700
C3398       C  0.23965918  0.15533735  0.81648262    -0.18700
C3399       C  0.28355503  0.16784125  0.79925928    -0.20600
C3400       C  0.30976111  0.16670056  0.80846634    -0.13100
C3401       C  0.31869718  0.15249114  0.67779310     0.03600
C3402       C  0.30121750  0.13911028  0.70427267    -0.25300
H3403       H  0.21807846  0.11741984  0.73347285     0.08600
H3404       H  0.26402442  0.11522742  0.74906392     0.12200
H3405       H  0.23270247  0.16651424  0.78891056     0.12200
H3406       H  0.27703761  0.17911722  0.77152533     0.11900
H3407       H  0.32301607  0.17729138  0.78791774     0.12500
H3408       H  0.30810404  0.12799787  0.73198167     0.14400
C3409       C  0.97529697  0.39730301  0.71015339    -0.05600
C3410       C  0.99021997  0.41328555  0.73675486    -0.05500
C3411       C  0.01664052  0.41575675  0.72900047    -0.23700
C3412       C  0.02857353  0.40190253  0.86170893     0.18500
C3413       C  0.01365611  0.38529178  0.66904623     0.15700
C3414       C  0.98725630  0.38319799  0.67665167    -0.18700
C3415       C  0.02523569  0.37143527  0.80167951    -0.20600
C3416       C  0.05121243  0.37459041  0.79240704    -0.13100
C3417       C  0.06626300  0.39119612  0.81754412     0.03600
C3418       C  0.05497490  0.40453197  0.85279541    -0.25300
H3419       H  0.98133362  0.42443032  0.76263265     0.08600
H3420       H  0.02773051  0.42848664  0.91614099     0.12200
H3421       H  0.97587858  0.37083772  0.65590759     0.12200
H3422       H  0.01403037  0.35866209  0.61478124     0.11900
H3423       H  0.05960701  0.36397517  0.76539961     0.12500
H3424       H  0.06651336  0.41736347  0.87235222     0.14400
C3425       C  0.14730819  0.31760465  0.78850155    -0.05600
C3426       C  0.16255961  0.30513123  0.75711551    -0.05500
C3427       C  0.16580005  0.27862538  0.75868858    -0.23700
C3428       C  0.15312256  0.26410234  0.79084595     0.18500
C3429       C  0.13754088  0.27650591  0.82243837     0.15700
C3430       C  0.13504458  0.30327919  0.82147183    -0.18700
C3431       C  0.12471949  0.26187638  0.68765453    -0.20600
C3432       C  0.12751205  0.23526006  0.68851763    -0.13100
C3433       C  0.14270032  0.22277946  0.82360832     0.03600
C3434       C  0.15548148  0.23736414  0.79150374    -0.25300
H3435       H  0.17229247  0.31599673  0.73172224     0.08600
H3436       H  0.17780438  0.26943086  0.73421787     0.12200
H3437       H  0.12330251  0.31293829  0.84582040     0.12200
H3438       H  0.11268691  0.27103658  0.71212124     0.11900
H3439       H  0.11734811  0.22437612  0.71336461     0.12500
H3440       H  0.16719353  0.22788769  0.76690124     0.14400
C3441       C  0.56483237  0.38584399  0.70926082    -0.05600
C3442       C  0.55202608  0.37070863  0.74052487    -0.05500
C3443       C  0.52541506  0.36907304  0.74070006    -0.23700
C3444       C  0.51103884  0.38299846  0.71017128     0.18500
C3445       C  0.52357674  0.39786785  0.67773917     0.15700
C3446       C  0.55055935  0.39896527  0.67712973    -0.18700
C3447       C  0.50880167  0.41176943  0.64733787    -0.20600
C3448       C  0.48193987  0.41133779  0.64979614    -0.13100
C3449       C  0.46963089  0.39736667  0.68312647     0.03600
C3450       C  0.48427711  0.38293031  0.71267620    -0.25300
H3451       H  0.56265864  0.36023831  0.76527717     0.08600
H3452       H  0.51604448  0.35754577  0.76564024     0.12200
H3453       H  0.56033645  0.41062760  0.65283585     0.12200
H3454       H  0.51800161  0.42317754  0.62207187     0.11900
H3455       H  0.47084128  0.42265406  0.62681992     0.12500
H3456       H  0.47476391  0.37206741  0.73838562     0.14400
C3457       C  0.39224203  0.32420135  0.72833328    -0.05600
C3458       C  0.37795057  0.31290704  0.76228160    -0.05500
C3459       C  0.37630376  0.28626004  0.76546899    -0.23700
C3460       C  0.38939895  0.27066466  0.73528027     0.18500
C3461       C  0.40452029  0.28209385  0.70197964     0.15700
C3462       C  0.40570233  0.30873526  0.69860463    -0.18700
C3463       C  0.41772981  0.26672327  0.83852668    -0.20600
C3464       C  0.41528757  0.24023323  0.84028078    -0.13100
C3465       C  0.40001016  0.22861268  0.70604087     0.03600
C3466       C  0.38741851  0.24390649  0.73735685    -0.25300
H3467       H  0.36739999  0.32468408  0.78537160     0.08600
H3468       H  0.36471499  0.27786185  0.79133428     0.12200
H3469       H  0.41684379  0.31749960  0.83914995     0.12200
H3470       H  0.42946819  0.27521998  0.81294286     0.11900
H3471       H  0.42539843  0.22879529  0.81613088     0.12500
H3472       H  0.37570513  0.23505199  0.76263172     0.14400
C3473       C  0.31517987  0.40562482  0.73597304    -0.05600
C3474       C  0.30718338  0.42036664  0.77209131    -0.05500
C3475       C  0.28132532  0.42179251  0.78376018    -0.23700
C3476       C  0.26300168  0.40820604  0.75990866     0.18500
C3477       C  0.27079620  0.39330138  0.72347515     0.15700
C3478       C  0.29684013  0.39219739  0.71159301    -0.18700
C3479       C  0.25239954  0.37967266  0.69973548    -0.20600
C3480       C  0.22654354  0.38094263  0.71179588    -0.13100
C3481       C  0.21870611  0.39560823  0.74804965     0.03600
C3482       C  0.23703835  0.40916094  0.77207720    -0.25300
H3483       H  0.32097513  0.43093786  0.79132163     0.08600
H3484       H  0.27568068  0.43332011  0.64504823     0.12200
H3485       H  0.30284949  0.38062536  0.85054321     0.12200
H3486       H  0.25797836  0.36805910  0.83850639     0.11900
H3487       H  0.21267897  0.37003140  0.85994151     0.12500
H3488       H  0.23105867  0.42054210  0.80004602     0.14400
C3489       C  0.13425855  0.97352867  0.76209064    -0.05600
C3490       C  0.11875316  0.98869982  0.73471887    -0.05500
C3491       C  0.11709317  0.01508567  0.74080150    -0.23700
C3492       C  0.13136875  0.02691463  0.77380952     0.18500
C3493       C  0.14671865  0.01186453  0.80215368     0.15700
C3494       C  0.14785759  0.98516884  0.79641808    -0.18700
C3495       C  0.16083149  0.02387276  0.83537848    -0.20600
C3496       C  0.15966611  0.05046751  0.84048579    -0.13100
C3497       C  0.14500161  0.06547201  0.81165735     0.03600
C3498       C  0.13088197  0.05360069  0.77839057    -0.25300
H3499       H  0.10793617  0.98011926  0.70831114     0.08600
H3500       H  0.10518917  0.02632322  0.71887826     0.12200
H3501       H  0.15980189  0.97359885  0.81778414     0.12200
H3502       H  0.17259926  0.01269289  0.85758876     0.11900
H3503       H  0.17070203  0.05940005  0.86627580     0.12500
H3504       H  0.11952211  0.06518379  0.75609726     0.14400
C3505       C  0.06038241  0.89258608  0.75436061    -0.05600
C3506       C  0.04485108  0.87730915  0.72767784    -0.05500
C3507       C  0.01843008  0.87570810  0.73564516    -0.23700
C3508       C  0.00710548  0.88995946  0.76964572     0.18500
C3509       C  0.02269248  0.90567807  0.79616623     0.15700
C3510       C  0.04923221  0.90661144  0.78870754    -0.18700
C3511       C  0.01154281  0.91997167  0.66343118    -0.20600
C3512       C  0.98527974  0.91823499  0.83853738    -0.13100
C3513       C  0.96961891  0.90260519  0.81265625     0.03600
C3514       C  0.98054629  0.88874777  0.77775443    -0.25300
H3515       H  0.05323948  0.86636529  0.86769105     0.08600
H3516       H  0.00681829  0.86367542  0.88143573     0.12200
H3517       H  0.06122918  0.91843255  0.80934854     0.12200
H3518       H  0.02321465  0.93207668  0.68408071     0.11900
H3519       H  0.97715961  0.92908959  0.69882058     0.12500
H3520       H  0.96852666  0.87661600  0.75772832     0.14400
C3521       C  0.14227789  0.47494318  0.77981849    -0.05600
C3522       C  0.12807758  0.48916309  0.74906852    -0.05500
C3523       C  0.12819843  0.51599242  0.75014990    -0.23700
C3524       C  0.14287541  0.52901410  0.78152514     0.18500
C3525       C  0.15770320  0.51473820  0.81174914     0.15700
C3526       C  0.15723924  0.48796427  0.81076642    -0.18700
C3527       C  0.17236230  0.52741912  0.67659355    -0.20600
C3528       C  0.17152994  0.55398861  0.67951145    -0.13100
C3529       C  0.15658518  0.56847453  0.81697329     0.03600
C3530       C  0.14269211  0.55595085  0.78389595    -0.25300
H3531       H  0.11652762  0.47954241  0.72472997     0.08600
H3532       H  0.11681644  0.52654252  0.72649700     0.12200
H3533       H  0.16846785  0.47722982  0.66775866     0.12200
H3534       H  0.18384138  0.51674015  0.69995395     0.11900
H3535       H  0.18245983  0.56328846  0.70506010     0.12500
H3536       H  0.13108461  0.56703635  0.76127828     0.14400
C3537       C  0.97824868  0.64241199  0.68790829    -0.05600
C3538       C  0.98934519  0.62747666  0.72128064    -0.05500
C3539       C  0.01600645  0.62484695  0.72403028    -0.23700
C3540       C  0.03200912  0.63758553  0.69402751     0.18500
C3541       C  0.02093133  0.65279968  0.82728197     0.15700
C3542       C  0.99419321  0.65492989  0.82423095    -0.18700
C3543       C  0.03674872  0.66561087  0.79727244    -0.20600
C3544       C  0.06331670  0.66315766  0.79991893    -0.13100
C3545       C  0.07463462  0.64823473  0.66641028     0.03600
C3546       C  0.05885774  0.63552715  0.69694377    -0.25300
H3547       H  0.97736671  0.61753930  0.74489546     0.08600
H3548       H  0.02410741  0.61309468  0.74989406     0.12200
H3549       H  0.98577171  0.66651804  0.79840677     0.12200
H3550       H  0.02856434  0.67735412  0.77146333     0.11900
H3551       H  0.07506785  0.67324448  0.77615194     0.12500
H3552       H  0.06742860  0.62396637  0.72263999     0.14400
C3553       C  0.13951769  0.81930902  0.70734983    -0.05600
C3554       C  0.12536823  0.81065103  0.67116073    -0.05500
C3555       C  0.12514594  0.78474532  0.66009203    -0.23700
C3556       C  0.13940690  0.76705312  0.68461299     0.18500
C3557       C  0.15375949  0.77558069  0.72107527     0.15700
C3558       C  0.15361762  0.80163081  0.73235306    -0.18700
C3559       C  0.16796966  0.75788215  0.74567884    -0.20600
C3560       C  0.16764710  0.73196328  0.73473640    -0.13100
C3561       C  0.15351765  0.72333392  0.69854473     0.03600
C3562       C  0.13953288  0.74099214  0.67336363    -0.25300
H3563       H  0.11422315  0.82394579  0.65159674     0.08600
H3564       H  0.11397236  0.77858701  0.63214614     0.12200
H3565       H  0.16468810  0.80818683  0.76018015     0.12200
H3566       H  0.17912656  0.76403629  0.77364748     0.11900
H3567       H  0.17867243  0.71861431  0.75438634     0.12500
H3568       H  0.12843986  0.73438124  0.64559907     0.14400
C3569       C  0.39443522  0.07168794  0.70874104    -0.05600
C3570       C  0.40923577  0.05798084  0.67814963    -0.05500
C3571       C  0.41057435  0.03134142  0.68022446    -0.23700
C3572       C  0.39670816  0.01796729  0.71238363     0.18500
C3573       C  0.38144726  0.03156445  0.74293658     0.15700
C3574       C  0.38052254  0.05834985  0.74106398    -0.18700
C3575       C  0.36770642  0.01814182  0.77525976    -0.20600
C3576       C  0.36960390  0.99151837  0.77799196    -0.13100
C3577       C  0.38465097  0.97792361  0.74766372     0.03600
C3578       C  0.39795251  0.99123076  0.71462782    -0.25300
H3579       H  0.42017500  0.06790754  0.65308301     0.08600
H3580       H  0.42231573  0.02119161  0.65650412     0.12200
H3581       H  0.36906234  0.06880817  0.76482063     0.12200
H3582       H  0.35596181  0.02826818  0.79899986     0.11900
H3583       H  0.35916344  0.98151265  0.80358647     0.12500
H3584       H  0.40965743  0.98078994  0.69118477     0.14400
C3585       C  0.47008259  0.90823450  0.76021269    -0.05600
C3586       C  0.48220784  0.92326035  0.72807998    -0.05500
C3587       C  0.50884819  0.92538346  0.72699328    -0.23700
C3588       C  0.52390076  0.91187307  0.75725704     0.18500
C3589       C  0.51197739  0.89706487  0.79040415     0.15700
C3590       C  0.48501454  0.89564674  0.79210883    -0.18700
C3591       C  0.52730708  0.88344488  0.82036881    -0.20600
C3592       C  0.55412760  0.88399120  0.81676372    -0.13100
C3593       C  0.56595595  0.89785495  0.78277246     0.03600
C3594       C  0.55069421  0.91216507  0.75372367    -0.25300
H3595       H  0.47100621  0.93323240  0.70345815     0.08600
H3596       H  0.51771895  0.93686040  0.70146118     0.12200
H3597       H  0.47573002  0.88399943  0.81699263     0.12200
H3598       H  0.51855217  0.87207377  0.84614498     0.11900
H3599       H  0.56556297  0.87280130  0.83943917     0.12500
H3600       H  0.55970668  0.92302458  0.72750283     0.14400
C3601       C  0.21722273  0.89929520  0.72213899    -0.05600
C3602       C  0.22918701  0.91387129  0.68913469    -0.05500
C3603       C  0.25600072  0.91552694  0.68708981    -0.23700
C3604       C  0.27128524  0.90226402  0.71754955     0.18500
C3605       C  0.25933710  0.88714126  0.75024074     0.15700
C3606       C  0.23251459  0.88582014  0.75235480    -0.18700
C3607       C  0.27437410  0.87397565  0.78098009    -0.20600
C3608       C  0.30099609  0.87646071  0.78040878    -0.13100
C3609       C  0.31314658  0.89151689  0.74833349     0.03600
C3610       C  0.29823228  0.90406861  0.71638704    -0.25300
H3611       H  0.21781163  0.92441518  0.83214169     0.08600
H3612       H  0.26478954  0.92719636  0.82837919     0.12200
H3613       H  0.22351581  0.87439174  0.77785491     0.12200
H3614       H  0.26549728  0.86229650  0.80623430     0.11900
H3615       H  0.31217295  0.86658318  0.80517317     0.12500
H3616       H  0.30752303  0.91579544  0.69162094     0.14400
C3617       C  0.40984219  0.57395119  0.84685711    -0.05600
C3618       C  0.42365929  0.56400582  0.71581201    -0.05500
C3619       C  0.42346810  0.53779895  0.72458414    -0.23700
C3620       C  0.40890640  0.52132093  0.69849331     0.18500
C3621       C  0.39488374  0.53128118  0.66259409     0.15700
C3622       C  0.39567945  0.55752167  0.82004095    -0.18700
C3623       C  0.38013311  0.51483622  0.80342991    -0.20600
C3624       C  0.37945988  0.48872751  0.64616463    -0.13100
C3625       C  0.39323808  0.47868726  0.68188152     0.03600
C3626       C  0.40794386  0.49510341  0.70795006    -0.25300
H3627       H  0.43463215  0.57653629  0.73681287     0.08600
H3628       H  0.43431575  0.53049231  0.75221645     0.12200
H3629       H  0.38476861  0.56528485  0.79280201     0.12200
H3630       H  0.36925217  0.52215483  0.77584226     0.11900
H3631       H  0.36799395  0.47636660  0.79227480     0.12500
H3632       H  0.41876985  0.48746586  0.73537930     0.14400
C3633       C  0.57497637  0.63601925  0.72650844    -0.05600
C3634       C  0.55859801  0.62172167  0.75363075    -0.05500
C3635       C  0.53215350  0.62192120  0.74647801    -0.23700
C3636       C  0.52166458  0.63703186  0.71286417     0.18500
C3637       C  0.53803753  0.65138494  0.68515417     0.15700
C3638       C  0.56465429  0.65053109  0.69184761    -0.18700
C3639       C  0.52745936  0.66639534  0.81810411    -0.20600
C3640       C  0.50090181  0.66696476  0.81161713    -0.13100
C3641       C  0.48458823  0.65315284  0.83959394     0.03600
C3642       C  0.49505493  0.63827857  0.70687507    -0.25300
H3643       H  0.56628823  0.61045847  0.78047298     0.08600
H3644       H  0.51984807  0.61083382  0.76800936     0.12200
H3645       H  0.57727162  0.66168150  0.83763202     0.12200
H3646       H  0.53973426  0.67739774  0.79639776     0.11900
H3647       H  0.49306169  0.67843738  0.78516885     0.12500
H3648       H  0.48244828  0.62743742  0.72832438     0.14400
C3649       C  0.23204634  0.64936234  0.84245562    -0.05600
C3650       C  0.24341234  0.66440235  0.70834770    -0.05500
C3651       C  0.26994659  0.66765992  0.70917538    -0.23700
C3652       C  0.28555982  0.65527513  0.67822249     0.18500
C3653       C  0.27429767  0.63986328  0.81216758     0.15700
C3654       C  0.24750939  0.63728174  0.81080340    -0.18700
C3655       C  0.29003923  0.62741023  0.78139677    -0.20600
C3656       C  0.31667042  0.63040461  0.78277110    -0.13100
C3657       C  0.32797210  0.64543630  0.81550284     0.03600
C3658       C  0.31227072  0.65785084  0.67977904    -0.25300
H3659       H  0.23167360  0.67403357  0.73269387     0.08600
H3660       H  0.27828951  0.67954993  0.73442802     0.12200
H3661       H  0.23869984  0.62572085  0.78553496     0.12200
H3662       H  0.28174499  0.61552911  0.75608915     0.11900
H3663       H  0.32846984  0.62060078  0.75873440     0.12500
H3664       H  0.32086411  0.66953987  0.70510018     0.14400
C3665       C  0.39990589  0.82170672  0.76017830    -0.05600
C3666       C  0.41594017  0.80866690  0.73055984    -0.05500
C3667       C  0.41968531  0.78225378  0.73458721    -0.23700
C3668       C  0.40691479  0.76844802  0.76761420     0.18500
C3669       C  0.39030676  0.78148051  0.79688299     0.15700
C3670       C  0.38711536  0.80799439  0.79322220    -0.18700
C3671       C  0.37742961  0.76786411  0.82983803    -0.20600
C3672       C  0.38163733  0.74169618  0.83484607    -0.13100
C3673       C  0.39827703  0.72856284  0.80634384     0.03600
C3674       C  0.41055058  0.74192448  0.77217302    -0.25300
H3675       H  0.42597318  0.81899992  0.70487114     0.08600
H3676       H  0.43239306  0.77261222  0.71171573     0.12200
H3677       H  0.37464249  0.81799261  0.81607853     0.12200
H3678       H  0.36460219  0.77756194  0.85245331     0.11900
H3679       H  0.37177171  0.73164650  0.86106203     0.12500
H3680       H  0.42329124  0.73182739  0.74991081     0.14400
O3681       O  0.41037559  0.61036622  0.96661491    -0.73300
O3682       O  0.40617904  0.68629223  0.94658692    -0.74300
O3683       O  0.44688556  0.65080634  0.96239399    -0.62900
O3684       O  0.37011007  0.64545002  0.95099422    -0.71300
O3685       O  0.36620054  0.65160960  0.85606947    -0.70900
O3686       O  0.44227312  0.65648268  0.86751057    -0.62100
O3687       O  0.40145626  0.69181549  0.85168827    -0.74600
O3688       O  0.40669915  0.61662592  0.87175700    -0.73400
Cu3689     Cu  0.40861115  0.64807284  0.95402959     1.04600
Cu3690     Cu  0.40407834  0.65440994  0.86412386     1.04300
C3691       C  0.40908773  0.60160832  0.00575558     0.92900
C3692       C  0.40241141  0.70094739  0.97949536     0.92000
C3693       C  0.45660821  0.65382014  0.00047110     0.84200
C3694       C  0.35607563  0.64761751  0.98529880     0.90400
O3695       O  0.38633819  0.93864760  0.95422600    -0.73300
O3696       O  0.39410075  0.86239763  0.95972734    -0.74300
O3697       O  0.42883691  0.90407508  0.96074971    -0.62900
O3698       O  0.35226152  0.89639769  0.95366924    -0.71300
O3699       O  0.35441675  0.89544131  0.88096127    -0.70900
O3700       O  0.43104406  0.90324160  0.88803688    -0.62100
O3701       O  0.39713341  0.86094252  0.88711007    -0.74600
O3702       O  0.38924165  0.93707424  0.88160002    -0.73400
Cu3703     Cu  0.39029502  0.90045508  0.95962960     1.04600
Cu3704     Cu  0.39300912  0.89908699  0.88191184     1.04300
C3705       C  0.38673097  0.94989421  0.91692817     0.92900
C3706       C  0.39690634  0.84965254  0.92434035     0.92000
C3707       C  0.44201107  0.90497662  0.92532830     0.84200
C3708       C  0.34125552  0.89466029  0.91643008     0.90400
O3709       O  0.15407108  0.61181863  0.95748409    -0.73300
O3710       O  0.15393011  0.68804613  0.98184321    -0.74300
O3711       O  0.19252074  0.64969057  0.97077445    -0.62900
O3712       O  0.11598748  0.65063015  0.96733994    -0.71300
O3713       O  0.11409416  0.64154294  0.87179379    -0.70900
O3714       O  0.19128479  0.64372207  0.87626750    -0.62100
O3715       O  0.15186996  0.67980262  0.88659153    -0.74600
O3716       O  0.15442838  0.60491660  0.86269586    -0.73400
Cu3717     Cu  0.15415586  0.65026027  0.96681342     1.04600
Cu3718     Cu  0.15280189  0.64214195  0.87674187     1.04300
C3719       C  0.15477401  0.59639684  0.99014854     0.92900
C3720       C  0.15298271  0.69579672  0.85497974     0.92000
C3721       C  0.20398150  0.64723572  0.00748320     0.84200
C3722       C  0.10288177  0.64647965  0.83543039     0.90400
O3723       O  0.13727006  0.86314471  0.85396561    -0.73300
O3724       O  0.13359267  0.93774337  0.88096451    -0.74300
O3725       O  0.17438871  0.90310825  0.86034408    -0.62900
O3726       O  0.09743562  0.89751754  0.87553664    -0.71300
O3727       O  0.10319311  0.89090270  0.94682929    -0.70900
O3728       O  0.17922376  0.89312455  0.93061362    -0.62100
O3729       O  0.14078363  0.92999698  0.95146253    -0.74600
O3730       O  0.14189312  0.85419071  0.92470052    -0.73400
Cu3731     Cu  0.13556789  0.90069032  0.86525842     1.04600
Cu3732     Cu  0.14147265  0.89175693  0.94085237     1.04300
C3733       C  0.13966681  0.84681323  0.88487288     0.92900
C3734       C  0.13643407  0.94578120  0.92016924     0.92000
C3735       C  0.18894681  0.89853193  0.89323124     0.84200
C3736       C  0.08830693  0.89363073  0.91397681     0.90400
O3737       O  0.35009788  0.39839329  0.85262211    -0.73300
O3738       O  0.42608323  0.39792886  0.82506890    -0.74300
O3739       O  0.38933678  0.36058253  0.84932770    -0.62900
O3740       O  0.38685802  0.43559023  0.82727247    -0.71300
O3741       O  0.39809510  0.44271237  0.89631097    -0.70900
O3742       O  0.39459563  0.36715538  0.92068599    -0.62100
O3743       O  0.43368062  0.40179556  0.89636660    -0.74600
O3744       O  0.35909220  0.40819324  0.92163044    -0.73400
Cu3745     Cu  0.38776082  0.39786649  0.83608868     1.04600
Cu3746     Cu  0.39665062  0.40522786  0.91117130     1.04300
C3747       C  0.34271130  0.40394687  0.89159009     0.92900
C3748       C  0.44180125  0.39921468  0.85707727     0.92000
C3749       C  0.39200423  0.35196451  0.88826061     0.84200
C3750       C  0.39264574  0.45104984  0.85793586     0.90400
O3751       O  0.18517250  0.39715412  0.96819546    -0.73300
O3752       O  0.11042115  0.39674705  0.00282600    -0.74300
O3753       O  0.14853309  0.35855853  0.98866833    -0.62900
O3754       O  0.14748311  0.43504326  0.98294135    -0.71300
O3755       O  0.13549969  0.43386018  0.91323542    -0.70900
O3756       O  0.13956818  0.35676863  0.91756142    -0.62100
O3757       O  0.10030402  0.39333427  0.93245579    -0.74600
O3758       O  0.17428373  0.39609171  0.89792740    -0.73400
Cu3759     Cu  0.14822166  0.39698776  0.98807294     1.04600
Cu3760     Cu  0.13695871  0.39505870  0.91291387     1.04300
C3761       C  0.19145515  0.39644053  0.92759981     0.92900
C3762       C  0.09359901  0.39420984  0.97279342     0.92000
C3763       C  0.14481430  0.34561054  0.95382096     0.84200
C3764       C  0.14156430  0.44662844  0.94742390     0.90400
O3765       O  0.35324721  0.15129050  0.89493463    -0.73300
O3766       O  0.42815002  0.14923422  0.92383691    -0.74300
O3767       O  0.39172105  0.18885322  0.90891735    -0.62900
O3768       O  0.38947273  0.11217143  0.90981691    -0.71300
O3769       O  0.39935686  0.11176068  0.83891005    -0.70900
O3770       O  0.40152139  0.18811511  0.83798499    -0.62100
O3771       O  0.43737883  0.14937637  0.85263030    -0.74600
O3772       O  0.36273301  0.15142782  0.99053504    -0.73400
Cu3773     Cu  0.39028028  0.15039405  0.91185688     1.04600
Cu3774     Cu  0.40049534  0.15008047  0.00258253     1.04300
C3775       C  0.34618471  0.15172945  0.85486160     0.92900
C3776       C  0.44456083  0.14945359  0.89261238     0.92000
C3777       C  0.39746956  0.20055857  0.87333112     0.84200
C3778       C  0.39428891  0.09985687  0.87458345     0.90400
O3779       O  0.14863158  0.18330846  0.95284046    -0.73300
O3780       O  0.14856668  0.10682167  0.94676333    -0.74300
O3781       O  0.11083109  0.14528539  0.93859265    -0.62900
O3782       O  0.18657244  0.14479884  0.96162050    -0.71300
O3783       O  0.17876312  0.14248703  0.86652799    -0.70900
O3784       O  0.10359228  0.14345095  0.84375134    -0.62100
O3785       O  0.14161541  0.10443627  0.85194802    -0.74600
O3786       O  0.14058864  0.18152428  0.85767847    -0.73400
Cu3787     Cu  0.14895272  0.14513586  0.94748517     1.04600
Cu3788     Cu  0.14091103  0.14291830  0.85747991     1.04300
C3789       C  0.14420665  0.19455193  0.98926096     0.92900
C3790       C  0.14509606  0.09355246  0.98151724     0.92000
C3791       C  0.09531651  0.14456660  0.97110853     0.84200
C3792       C  0.19457303  0.14329330  0.00113644     0.90400
O3793       O  0.60662795  0.39219614  0.01126958    -0.73300
O3794       O  0.68357304  0.39605317  0.02538575    -0.74300
O3795       O  0.64808914  0.35680132  0.00719847    -0.62900
O3796       O  0.64228727  0.43137947  0.02758018    -0.71300
O3797       O  0.64010696  0.42537877  0.93293401    -0.70900
O3798       O  0.64249000  0.34867431  0.91141830    -0.62100
O3799       O  0.67923894  0.38709043  0.92957270    -0.74600
O3800       O  0.60339165  0.38601078  0.91645576    -0.73400
Cu3801     Cu  0.64529924  0.39437108  0.01544343     1.04600
Cu3802     Cu  0.64114794  0.38661470  0.92516169     1.04300
C3803       C  0.59293372  0.38828873  0.87885583     0.92900
C3804       C  0.69349989  0.39165505  0.89639514     0.92000
C3805       C  0.64609187  0.34085504  0.87208318     0.84200
C3806       C  0.64041252  0.44036259  0.89958379     0.90400
O3807       O  0.60454151  0.14946437  0.93428816    -0.73300
O3808       O  0.68077613  0.14798806  0.94436152    -0.74300
O3809       O  0.64265080  0.11233283  0.91900078    -0.62900
O3810       O  0.64237096  0.18525057  0.95959842    -0.71300
O3811       O  0.63492994  0.17252994  0.86123959    -0.70900
O3812       O  0.64264298  0.09971067  0.82183050    -0.62100
O3813       O  0.67699953  0.13882972  0.84862426    -0.74600
O3814       O  0.60060243  0.13346818  0.83479374    -0.73400
Cu3815     Cu  0.64272306  0.14920444  0.93698286     1.04600
Cu3816     Cu  0.63869180  0.13565636  0.84401846     1.04300
C3817       C  0.59048924  0.14113663  0.79893799     0.92900
C3818       C  0.69089278  0.14392714  0.81513051     0.92000
C3819       C  0.64293321  0.09447995  0.78089124     0.84200
C3820       C  0.63809734  0.19046638  0.83326965     0.90400
O3821       O  0.89530022  0.43702238  0.91305218    -0.73300
O3822       O  0.89811447  0.36130727  0.92768453    -0.74300
O3823       O  0.93585222  0.40054789  0.91763774    -0.62900
O3824       O  0.85813519  0.39837228  0.92192566    -0.71300
O3825       O  0.85789158  0.39731392  0.84913131    -0.70900
O3826       O  0.93394230  0.39268198  0.84624001    -0.62100
O3827       O  0.89350014  0.35677739  0.85575798    -0.74600
O3828       O  0.89760002  0.43296296  0.84064202    -0.73400
Cu3829     Cu  0.89701178  0.39940900  0.92272345     1.04600
Cu3830     Cu  0.89582314  0.39468778  0.84549662     1.04300
C3831       C  0.89569194  0.44697092  0.87477499     0.92900
C3832       C  0.89504882  0.34705907  0.89419678     0.92000
C3833       C  0.94706631  0.39671035  0.88077187     0.84200
C3834       C  0.84590547  0.39861963  0.88559237     0.90400
O3835       O  0.89295026  0.11369289  0.84641155    -0.73300
O3836       O  0.89105710  0.19027138  0.83267202    -0.74300
O3837       O  0.85345723  0.15073129  0.83557218    -0.62900
O3838       O  0.92982473  0.15379474  0.84397810    -0.71300
O3839       O  0.93305773  0.15053875  0.93818562    -0.70900
O3840       O  0.85664101  0.14462945  0.93037240    -0.62100
O3841       O  0.89232982  0.18575452  0.92692794    -0.74600
O3842       O  0.89783456  0.11014248  0.94093756    -0.73400
Cu3843     Cu  0.89160631  0.15226779  0.84221916     1.04600
Cu3844     Cu  0.89496465  0.14766497  0.93160607     1.04300
C3845       C  0.89638099  0.09990063  0.81227432     0.92900
C3846       C  0.89198076  0.19999935  0.79419092     0.92000
C3847       C  0.84297990  0.14657651  0.79847897     0.84200
C3848       C  0.94346718  0.15301151  0.80913317     0.90400
O3849       O  0.65160534  0.60408282  0.96007731    -0.73300
O3850       O  0.64510518  0.68027640  0.94721457    -0.74300
O3851       O  0.61063332  0.63840120  0.94157567    -0.62900
O3852       O  0.68603665  0.64580854  0.96556095    -0.71300
O3853       O  0.69381243  0.64365863  0.89399986    -0.70900
O3854       O  0.61852500  0.63636673  0.87001996    -0.62100
O3855       O  0.65248672  0.67744520  0.87554259    -0.74600
O3856       O  0.65881679  0.60135881  0.88836631    -0.73400
Cu3857     Cu  0.64810896  0.64223529  0.95611068     1.04600
Cu3858     Cu  0.65633153  0.63948322  0.87957399     1.04300
C3859       C  0.65566112  0.59067616  0.92581110     0.92900
C3860       C  0.64733410  0.69078054  0.90944502     0.92000
C3861       C  0.60268343  0.63674042  0.90204282     0.84200
C3862       C  0.70178241  0.64625683  0.93336401     0.90400
O3863       O  0.93594350  0.64238451  0.88474401    -0.73300
O3864       O  0.85927338  0.64651812  0.87251614    -0.74300
O3865       O  0.89592744  0.60713290  0.87267350    -0.62900
O3866       O  0.89954343  0.68295744  0.88496060    -0.71300
O3867       O  0.90189398  0.68690022  0.97915643    -0.70900
O3868       O  0.90195490  0.61047338  0.96738078    -0.62100
O3869       O  0.86353882  0.64944452  0.96685059    -0.74600
O3870       O  0.94012737  0.64815106  0.97955226    -0.73400
Cu3871     Cu  0.89750229  0.64472102  0.88122940     1.04600
Cu3872     Cu  0.90200913  0.64892894  0.97069723     1.04300
C3873       C  0.95012971  0.64447250  0.85063781     0.92900
C3874       C  0.84930569  0.64785777  0.00097157     0.92000
C3875       C  0.89876129  0.59676331  0.83511014     0.84200
C3876       C  0.90112362  0.69694315  0.01728927     0.90400
O3877       O  0.63675806  0.85472233  0.88791433    -0.73300
O3878       O  0.64187190  0.93263480  0.88886228    -0.74300
O3879       O  0.67604398  0.89086726  0.87268881    -0.62900
O3880       O  0.60173611  0.89653696  0.90157818    -0.71300
O3881       O  0.60984395  0.89380406  0.97282672    -0.70900
O3882       O  0.68576264  0.89151913  0.94349035    -0.62100
O3883       O  0.64971484  0.93008712  0.96023031    -0.74600
O3884       O  0.64717234  0.85507037  0.95839954    -0.73400
Cu3885     Cu  0.63863675  0.89373400  0.88523335     1.04600
Cu3886     Cu  0.64828008  0.89258379  0.96111281     1.04300
C3887       C  0.64249935  0.84276563  0.92338040     0.92900
C3888       C  0.64728215  0.94337624  0.92543883     0.92000
C3889       C  0.69269434  0.89046379  0.90317956     0.84200
C3890       C  0.59385117  0.89598159  0.94123973     0.90400
O3891       O  0.89868801  0.85971295  0.87450936    -0.73300
O3892       O  0.89628267  0.93649508  0.88260067    -0.74300
O3893       O  0.86044403  0.89715712  0.89439583    -0.62900
O3894       O  0.93495824  0.89999703  0.86319513    -0.71300
O3895       O  0.92548346  0.90025865  0.95893103    -0.70900
O3896       O  0.85025498  0.89979225  0.99054789    -0.62100
O3897       O  0.88803833  0.93833380  0.97784209    -0.74600
O3898       O  0.88744326  0.86215564  0.97113508    -0.73400
Cu3899     Cu  0.89797975  0.89815816  0.88107570     1.04600
Cu3900     Cu  0.88748716  0.90019807  0.97215214     1.04300
C3901       C  0.89291338  0.84883115  0.00499045     0.92900
C3902       C  0.89184781  0.94944847  0.01449433     0.92000
C3903       C  0.84359075  0.89863960  0.03093156     0.84200
C3904       C  0.94206455  0.90070331  0.98969774     0.90400
C3905       C  0.81628400  0.89958445  0.87669766    -0.05600
C3906       C  0.80855813  0.91426605  0.91295850    -0.05500
C3907       C  0.78279881  0.91540061  0.92545822    -0.23700
C3908       C  0.76436704  0.90157564  0.90220529     0.18500
C3909       C  0.77198076  0.88677053  0.03218129     0.15700
C3910       C  0.79790478  0.88600210  0.01947095    -0.18700
C3911       C  0.75350139  0.87301905  0.00886743    -0.20600
C3912       C  0.72772581  0.87419616  0.02140379    -0.13100
C3913       C  0.72003812  0.88879525  0.89118218     0.03600
C3914       C  0.73847275  0.90237402  0.91494923    -0.25300
H3915       H  0.82246597  0.92520919  0.93127770     0.08600
H3916       H  0.77732731  0.92695711  0.95347718     0.12200
H3917       H  0.80382407  0.87463462  0.99145266     0.12200
H3918       H  0.75893869  0.86154046  0.98073719     0.11900
H3919       H  0.71375309  0.86348420  0.00280792     0.12500
H3920       H  0.73259470  0.91385501  0.94285807     0.14400
C3921       C  0.89206760  0.82068739  0.00197742    -0.05600
C3922       C  0.87756986  0.80911525  0.96872914    -0.05500
C3923       C  0.87625509  0.78256384  0.96554380    -0.23700
C3924       C  0.88977102  0.76708327  0.99510383     0.18500
C3925       C  0.90447176  0.77846782  0.02868663     0.15700
C3926       C  0.90542688  0.80522876  0.03205613    -0.18700
C3927       C  0.91782958  0.76285221  0.05841348    -0.20600
C3928       C  0.91635043  0.73623498  0.05521039    -0.13100
C3929       C  0.90207912  0.72489946  0.02154930     0.06800
C3930       C  0.88890835  0.74039921  0.99147420    -0.25300
H3931       H  0.86701620  0.82063389  0.94528030     0.08600
H3932       H  0.86487947  0.77414087  0.93966158     0.12200
H3933       H  0.91666161  0.81399158  0.05780420     0.12200
H3934       H  0.92915993  0.77121278  0.08440567     0.11900
H3935       H  0.92667840  0.72447759  0.07860578     0.12500
H3936       H  0.87777506  0.73165268  0.96555800     0.14400
C3937       C  0.64533026  0.81466286  0.92492328    -0.05600
C3938       C  0.66095293  0.80393568  0.95782303    -0.05500
C3939       C  0.66457524  0.77765117  0.96077010    -0.23700
C3940       C  0.65237152  0.76140448  0.93125206     0.18500
C3941       C  0.63670416  0.77178313  0.89770383     0.15700
C3942       C  0.63337990  0.79847874  0.89452182    -0.18700
C3943       C  0.62479528  0.75520424  0.86797883    -0.20600
C3944       C  0.62865224  0.72875684  0.87125255    -0.13100
C3945       C  0.64385507  0.71852624  0.90500118     0.03600
C3946       C  0.65556668  0.73490330  0.93498928    -0.25300
H3947       H  0.67066603  0.81595965  0.98137629     0.08600
H3948       H  0.67671914  0.77001488  0.98650794     0.12200
H3949       H  0.62144821  0.80656808  0.86889377     0.12200
H3950       H  0.61276709  0.76269012  0.84197545     0.11900
H3951       H  0.61943137  0.71623488  0.84788662     0.12500
H3952       H  0.66741013  0.72698184  0.96093208     0.14400
C3953       C  0.72933586  0.65015989  0.94161524    -0.05600
C3954       C  0.74354630  0.66669759  0.91458365    -0.05500
C3955       C  0.76969958  0.67050989  0.92202170    -0.23700
C3956       C  0.78221491  0.65725551  0.95588305     0.18500
C3957       C  0.76798377  0.64070079  0.98349344     0.15700
C3958       C  0.74155321  0.63753957  0.97655996    -0.18700
C3959       C  0.78049222  0.62740501  0.85061715    -0.20600
C3960       C  0.80680940  0.63054689  0.85715901    -0.13100
C3961       C  0.82119581  0.64651535  0.99602592     0.03600
C3962       C  0.80878036  0.65985333  0.96203887    -0.25300
H3963       H  0.73435168  0.67675115  0.88772643     0.08600
H3964       H  0.78027216  0.68327165  0.90053291     0.12200
H3965       H  0.73062442  0.62479612  0.83089729     0.12200
H3966       H  0.76989794  0.61469600  0.87217013     0.11900
H3967       H  0.81607495  0.61995242  0.88332497     0.12500
H3968       H  0.81981434  0.67210771  0.94031362     0.14400
C3969       C  0.89919606  0.07195456  0.81595232    -0.05600
C3970       C  0.91450416  0.05898184  0.95173877    -0.05500
C3971       C  0.91679305  0.03245974  0.95309202    -0.23700
C3972       C  0.90333069  0.01837111  0.98470667     0.18500
C3973       C  0.88812481  0.03118274  0.84980027     0.15700
C3974       C  0.88637500  0.05802005  0.84884106    -0.18700
C3975       C  0.87480355  0.01685137  0.88152564    -0.20600
C3976       C  0.87661741  0.99013969  0.88181704    -0.13100
C3977       C  0.89116835  0.97746260  0.01628519     0.03600
C3978       C  0.90449042  0.99162952  0.98456329    -0.25300
H3979       H  0.92470733  0.06941558  0.92635992     0.08600
H3980       H  0.92857431  0.02292045  0.92868671     0.12200
H3981       H  0.87458344  0.06795712  0.87277825     0.12200
H3982       H  0.86313499  0.02628925  0.90618890     0.11900
H3983       H  0.86619007  0.97933905  0.90646134     0.12500
H3984       H  0.91576435  0.98177546  0.95977954     0.14400
C3985       C  0.89869873  0.56872213  0.83233001    -0.05600
C3986       C  0.91363213  0.55588038  0.96750410    -0.05500
C3987       C  0.91574228  0.52920385  0.96868048    -0.23700
C3988       C  0.90256283  0.51507756  0.83419925     0.18500
C3989       C  0.88680409  0.52798935  0.86493687     0.15700
C3990       C  0.88501601  0.55463367  0.86379765    -0.18700
C3991       C  0.87366440  0.51414673  0.89727396    -0.20600
C3992       C  0.87691097  0.48778860  0.90037406    -0.13100
C3993       C  0.89274144  0.47477047  0.87044930     0.03600
C3994       C  0.90513651  0.48838688  0.00340079    -0.25300
H3995       H  0.92434864  0.56650525  0.94301007     0.08600
H3996       H  0.92779499  0.51964562  0.94469824     0.12200
H3997       H  0.87337592  0.56448729  0.88808135     0.12200
H3998       H  0.86148379  0.52378913  0.92098008     0.11900
H3999       H  0.86691161  0.47749606  0.92616255     0.12500
H4000       H  0.91722124  0.47831729  0.98005878     0.14400
C4001       C  0.89409158  0.22782660  0.95543083    -0.05600
C4002       C  0.91053534  0.24169487  0.98278403    -0.05500
C4003       C  0.91453121  0.26776446  0.97558965    -0.23700
C4004       C  0.90157659  0.28046421  0.94163856     0.18500
C4005       C  0.88473088  0.26665072  0.91426595     0.15700
C4006       C  0.88135569  0.24032857  0.92099149    -0.18700
C4007       C  0.87174999  0.27935979  0.88036499    -0.20600
C4008       C  0.87576746  0.30542153  0.87311414    -0.13100
C4009       C  0.89232330  0.31928740  0.90029407     0.03600
C4010       C  0.90505916  0.30675417  0.93475311    -0.25300
H4011       H  0.92075680  0.23219782  0.84245813     0.08600
H4012       H  0.92747835  0.27804652  0.99690987     0.12200
H4013       H  0.86886067  0.22956418  0.89953732     0.12200
H4014       H  0.85880009  0.26907506  0.85905498     0.11900
H4015       H  0.86555506  0.31486934  0.84669948     0.12500
H4016       H  0.91771453  0.31744297  0.95604277     0.14400
C4017       C  0.64330187  0.06759093  0.93345444    -0.05600
C4018       C  0.62839908  0.05946401  0.89781957    -0.05500
C4019       C  0.62727317  0.03352076  0.88673053    -0.23700
C4020       C  0.64103387  0.01535622  0.91121614     0.18500
C4021       C  0.65660229  0.02367908  0.94637071     0.15700
C4022       C  0.65760928  0.04965160  0.79051884    -0.18700
C4023       C  0.67028698  0.00584833  0.80455435    -0.20600
C4024       C  0.66767470  0.97987311  0.96287858    -0.13100
C4025       C  0.65156571  0.97115134  0.92916607     0.03600
C4026       C  0.63882648  0.98901481  0.90240409    -0.25300
H4027       H  0.61685146  0.07305362  0.87962739     0.08600
H4028       H  0.61523699  0.02762617  0.85968793     0.12200
H4029       H  0.66916232  0.05588126  0.81801420     0.12200
H4030       H  0.68237458  0.01191562  0.83143367     0.11900
H4031       H  0.67794251  0.96647801  0.81694300     0.12500
H4032       H  0.62641112  0.98244084  0.87632563     0.14400
C4033       C  0.71880830  0.14568498  0.81962336    -0.05600
C4034       C  0.72943842  0.16055336  0.85312520    -0.05500
C4035       C  0.75595302  0.16395518  0.85544193    -0.23700
C4036       C  0.77219412  0.15195003  0.82493941     0.18500
C4037       C  0.76157563  0.13643210  0.79172485     0.15700
C4038       C  0.73490691  0.13361794  0.78902263    -0.18700
C4039       C  0.77780054  0.12433820  0.92800880    -0.20600
C4040       C  0.80426499  0.12806133  0.92982367    -0.13100
C4041       C  0.81496802  0.14345774  0.79596889     0.03600
C4042       C  0.79884548  0.15520461  0.82703925    -0.25300
H4043       H  0.71715469  0.17009650  0.87677049     0.08600
H4044       H  0.76375992  0.17587384  0.88115386     0.12200
H4045       H  0.72664405  0.12214164  0.92976774     0.12200
H4046       H  0.76997918  0.11233396  0.90242528     0.11900
H4047       H  0.81641117  0.11864337  0.90582948     0.12500
H4048       H  0.80701839  0.16705421  0.85254341     0.14400
C4049       C  0.65531141  0.56259755  0.92890893    -0.05600
C4050       C  0.66857895  0.54952890  0.96218760    -0.05500
C4051       C  0.66782193  0.52275040  0.96451981    -0.23700
C4052       C  0.65310760  0.50878932  0.93442852     0.18500
C4053       C  0.63914163  0.52209394  0.90172914     0.15700
C4054       C  0.64060838  0.54877796  0.89888530    -0.18700
C4055       C  0.62420064  0.50851421  0.87181258    -0.20600
C4056       C  0.62402883  0.48191095  0.87275177    -0.13100
C4057       C  0.63833599  0.46833877  0.90413843     0.03600
C4058       C  0.65240838  0.48184012  0.93575961    -0.25300
H4059       H  0.67978902  0.56002192  0.98593179     0.08600
H4060       H  0.67855104  0.51299343  0.98999029     0.12200
H4061       H  0.63002894  0.55889513  0.87356931     0.12200
H4062       H  0.61330332  0.51844224  0.84672918     0.11900
H4063       H  0.61306274  0.47181363  0.01483871     0.12500
H4064       H  0.66361952  0.47144165  0.95987245     0.14400
C4065       C  0.81780393  0.40114347  0.88467286    -0.05600
C4066       C  0.80644958  0.41587110  0.85131986    -0.05500
C4067       C  0.77986431  0.41771972  0.84802573    -0.23700
C4068       C  0.76413243  0.40432745  0.87740097     0.18500
C4069       C  0.77534443  0.38962761  0.91144836     0.15700
C4070       C  0.80219119  0.38839294  0.91526059    -0.18700
C4071       C  0.75948315  0.37617193  0.94064185    -0.20600
C4072       C  0.73284183  0.37723282  0.93608939    -0.13100
C4073       C  0.72160779  0.39142448  0.90185067     0.03600
C4074       C  0.73739429  0.40503889  0.87271731    -0.25300
H4075       H  0.81823633  0.42594552  0.82757310     0.08600
H4076       H  0.77160841  0.42912317  0.98849097     0.12200
H4077       H  0.81090201  0.37695032  0.94098047     0.12200
H4078       H  0.76766798  0.36483590  0.96696950     0.11900
H4079       H  0.72100946  0.36657303  0.95897972     0.12500
H4080       H  0.72886996  0.41614199  0.01303082     0.14400
C4081       C  0.63717641  0.21739235  0.84755847    -0.05600
C4082       C  0.62237164  0.22482561  0.88404619    -0.05500
C4083       C  0.62144842  0.25047394  0.89705715    -0.23700
C4084       C  0.63550687  0.26903354  0.87398897     0.18500
C4085       C  0.65058026  0.26156352  0.00411689     0.15700
C4086       C  0.65128468  0.23588947  0.99117750    -0.18700
C4087       C  0.66454025  0.27992437  0.98070401    -0.20600
C4088       C  0.66316660  0.30558391  0.99265131    -0.13100
C4089       C  0.64818295  0.31335147  0.86202623     0.03600
C4090       C  0.63456237  0.29493769  0.88633899    -0.25300
H4091       H  0.61119071  0.21085530  0.90208202     0.08600
H4092       H  0.60974479  0.25578337  0.92508866     0.12200
H4093       H  0.66288120  0.23028203  0.96314098     0.12200
H4094       H  0.67619140  0.27450773  0.95265808     0.11900
H4095       H  0.67387404  0.31945651  0.97354091     0.12500
H4096       H  0.62280671  0.30083082  0.91398660     0.14400
C4097       C  0.06756361  0.14501685  0.96369312    -0.05600
C4098       C  0.05679015  0.13116619  0.92904958    -0.05500
C4099       C  0.03019576  0.13018291  0.92411187    -0.23700
C4100       C  0.01410472  0.14349025  0.78660435     0.18500
C4101       C  0.02494823  0.15799544  0.82092410     0.15700
C4102       C  0.05160751  0.15855988  0.99265470    -0.18700
C4103       C  0.00895349  0.17124340  0.85017134    -0.20600
C4104       C  0.98238532  0.16951134  0.84630427    -0.13100
C4105       C  0.97145977  0.15504180  0.81250161     0.03600
C4106       C  0.98738906  0.14232405  0.78234954    -0.25300
H4107       H  0.06891572  0.12054074  0.90657112     0.08600
H4108       H  0.02220324  0.11899252  0.89761508     0.12200
H4109       H  0.05994391  0.16937604  0.85269024     0.12200
H4110       H  0.01698036  0.18248794  0.87657395     0.11900
H4111       H  0.97033713  0.17956540  0.86967622     0.12500
H4112       H  0.97898839  0.13107549  0.75626391     0.14400
C4113       C  0.47204697  0.15077743  0.90231168    -0.05600
C4114       C  0.48773736  0.16647436  0.87628985    -0.05500
C4115       C  0.51388626  0.16824472  0.88469498    -0.23700
C4116       C  0.52484148  0.15382712  0.91861539     0.18500
C4117       C  0.50923945  0.13789236  0.94507091     0.15700
C4118       C  0.48275745  0.13673578  0.93712073    -0.18700
C4119       C  0.52046763  0.12337160  0.81208842    -0.20600
C4120       C  0.54689774  0.12472485  0.81951778    -0.13100
C4121       C  0.56247782  0.14034145  0.95964206     0.03600
C4122       C  0.55124307  0.15487810  0.92598830    -0.25300
H4123       H  0.47968342  0.17753795  0.84950619     0.08600
H4124       H  0.52562371  0.18047095  0.86407093     0.12200
H4125       H  0.47063046  0.12458347  0.95722101     0.12200
H4126       H  0.50882335  0.11111867  0.83280749     0.11900
H4127       H  0.55519471  0.11332385  0.84563356     0.12500
H4128       H  0.56307611  0.16700785  0.90530690     0.14400
C4129       C  0.22221407  0.14217084  0.84341532    -0.05600
C4130       C  0.23127780  0.12783270  0.87920811    -0.05500
C4131       C  0.25747153  0.12649298  0.88801865    -0.23700
C4132       C  0.27495274  0.13987779  0.86163279     0.18500
C4133       C  0.26601103  0.15442878  0.99222795     0.15700
C4134       C  0.23967251  0.15533371  0.98315420    -0.18700
C4135       C  0.28356802  0.16783974  0.96593698    -0.20600
C4136       C  0.30977373  0.16669846  0.97514521    -0.13100
C4137       C  0.31870289  0.15248149  0.84446961     0.03600
C4138       C  0.30122149  0.13910229  0.87094895    -0.25300
H4139       H  0.21807925  0.11742076  0.90014836     0.08600
H4140       H  0.26402481  0.11522229  0.91573756     0.12200
H4141       H  0.23271614  0.16651372  0.95558578     0.12200
H4142       H  0.27705105  0.17911843  0.93820596     0.11900
H4143       H  0.32302897  0.17729124  0.95460035     0.12500
H4144       H  0.30810682  0.12798862  0.89865675     0.14400
C4145       C  0.97530974  0.39729520  0.87681938    -0.05600
C4146       C  0.99023260  0.41327724  0.90342184    -0.05500
C4147       C  0.01665333  0.41574766  0.89566925    -0.23700
C4148       C  0.02856516  0.40192291  0.02837663     0.18500
C4149       C  0.01366970  0.38528237  0.83571558     0.15700
C4150       C  0.98726948  0.38318930  0.84331902    -0.18700
C4151       C  0.02522996  0.37143677  0.96837448    -0.20600
C4152       C  0.05120593  0.37459238  0.95909736    -0.13100
C4153       C  0.06625489  0.39120764  0.98421842     0.03600
C4154       C  0.05496612  0.40455296  0.01945886    -0.25300
H4155       H  0.98134597  0.42442253  0.92929853     0.08600
H4156       H  0.02771978  0.42852173  0.08278765     0.12200
H4157       H  0.97589188  0.37082937  0.82257418     0.12200
H4158       H  0.01404525  0.35865274  0.78145100     0.11900
H4159       H  0.05960144  0.36396970  0.93209948     0.12500
H4160       H  0.06650397  0.41739053  0.03900500     0.14400
C4161       C  0.14730225  0.31760575  0.95517233    -0.05600
C4162       C  0.16256297  0.30513637  0.92379425    -0.05500
C4163       C  0.16581077  0.27863120  0.92536858    -0.23700
C4164       C  0.15313167  0.26410397  0.95751856     0.18500
C4165       C  0.13754174  0.27650340  0.98910443     0.15700
C4166       C  0.13503809  0.30327639  0.98813738    -0.18700
C4167       C  0.12472961  0.26188533  0.85434395    -0.20600
C4168       C  0.12751885  0.23526874  0.85520993    -0.13100
C4169       C  0.14271246  0.22277692  0.99027078     0.03600
C4170       C  0.15549632  0.23736571  0.95817457    -0.25300
H4171       H  0.17229713  0.31600472  0.89840629     0.08600
H4172       H  0.17782149  0.26944011  0.90090271     0.12200
H4173       H  0.12328951  0.31293220  0.01248115     0.12200
H4174       H  0.11270244  0.27104835  0.87881510     0.11900
H4175       H  0.11735782  0.22438722  0.88006348     0.12500
H4176       H  0.16721360  0.22789242  0.93357581     0.14400
C4177       C  0.56483292  0.38584461  0.87593696    -0.05600
C4178       C  0.55202619  0.37072172  0.90721880    -0.05500
C4179       C  0.52541486  0.36909154  0.90740443    -0.23700
C4180       C  0.51103765  0.38300966  0.87686757     0.18500
C4181       C  0.52357462  0.39786683  0.84441805     0.15700
C4182       C  0.55055818  0.39895975  0.84379934    -0.18700
C4183       C  0.50879761  0.41175954  0.81400685    -0.20600
C4184       C  0.48193539  0.41132943  0.81647000    -0.13100
C4185       C  0.46962738  0.39736929  0.84981542     0.03600
C4186       C  0.48427580  0.38294383  0.87937798    -0.25300
H4187       H  0.56265899  0.36025626  0.93197714     0.08600
H4188       H  0.51604480  0.35757288  0.93235755     0.12200
H4189       H  0.56033479  0.41061258  0.81949133     0.12200
H4190       H  0.51799639  0.42315827  0.78872786     0.11900
H4191       H  0.47083587  0.42263766  0.79348309     0.12500
H4192       H  0.47476409  0.37208840  0.90509818     0.14400
C4193       C  0.39223913  0.32419244  0.89501537    -0.05600
C4194       C  0.37793843  0.31289721  0.92895129    -0.05500
C4195       C  0.37629000  0.28625011  0.93213423    -0.23700
C4196       C  0.38939237  0.27065562  0.90195312     0.18500
C4197       C  0.40452236  0.28208588  0.86866496     0.15700
C4198       C  0.40570636  0.30872732  0.86529481    -0.18700
C4199       C  0.41772111  0.26672159  0.00519118    -0.20600
C4200       C  0.41528426  0.24023127  0.00694810    -0.13100
C4201       C  0.40001100  0.22860461  0.87271741     0.03600
C4202       C  0.38741133  0.24389733  0.90402548    -0.25300
H4203       H  0.36738213  0.32467371  0.95203442     0.08600
H4204       H  0.36469492  0.27785125  0.95799028     0.12200
H4205       H  0.41682930  0.31749714  0.00581469     0.12200
H4206       H  0.42945795  0.27521996  0.97960627     0.11900
H4207       H  0.42539720  0.22879427  0.98279907     0.12500
H4208       H  0.37569207  0.23504184  0.92929137     0.14400
C4209       C  0.31517001  0.40561134  0.90264047    -0.05600
C4210       C  0.30717188  0.42036252  0.93874638    -0.05500
C4211       C  0.28131334  0.42179204  0.95041011    -0.23700
C4212       C  0.26299074  0.40820012  0.92656573     0.18500
C4213       C  0.27078660  0.39328592  0.89014461     0.15700
C4214       C  0.29683137  0.39217795  0.87826770    -0.18700
C4215       C  0.25239034  0.37965202  0.86641199    -0.20600
C4216       C  0.22653362  0.38092603  0.87846793    -0.13100
C4217       C  0.21869546  0.39560080  0.91471014     0.03600
C4218       C  0.23702705  0.40915893  0.93872982    -0.25300
H4219       H  0.32096271  0.43093817  0.95797061     0.08600
H4220       H  0.27570154  0.43331040  0.81174066     0.12200
H4221       H  0.30284446  0.38062388  0.01719368     0.12200
H4222       H  0.25797399  0.36805447  0.00515620     0.11900
H4223       H  0.21267463  0.37002195  0.02659527     0.12500
H4224       H  0.23104668  0.42054660  0.96669007     0.14400
C4225       C  0.13426412  0.97352569  0.92873407    -0.05600
C4226       C  0.11876668  0.98869925  0.90135293    -0.05500
C4227       C  0.11710903  0.01508530  0.90743578    -0.23700
C4228       C  0.13137901  0.02691174  0.94045396     0.18500
C4229       C  0.14671876  0.01185889  0.96880954     0.15700
C4230       C  0.14785543  0.98516332  0.96307323    -0.18700
C4231       C  0.16082478  0.02386427  0.00204577    -0.20600
C4232       C  0.15966372  0.05045926  0.00715142    -0.13100
C4233       C  0.14501064  0.06546686  0.97831088     0.03600
C4234       C  0.13089675  0.05359807  0.94503397    -0.25300
H4235       H  0.10795476  0.98012065  0.87493715     0.08600
H4236       H  0.10521200  0.02632491  0.88550458     0.12200
H4237       H  0.15979307  0.97359157  0.98444708     0.12200
H4238       H  0.17258478  0.01268230  0.02426487     0.11900
H4239       H  0.17069445  0.05938941  0.03295038     0.12500
H4240       H  0.11954501  0.06518304  0.92273236     0.14400
C4241       C  0.06039252  0.89258485  0.92099233    -0.05600
C4242       C  0.04485540  0.87733092  0.89428058    -0.05500
C4243       C  0.01843381  0.87573428  0.90224588    -0.23700
C4244       C  0.00711501  0.88996813  0.93627363     0.18500
C4245       C  0.02270802  0.90566413  0.96282232     0.15700
C4246       C  0.04924765  0.90659242  0.95536510    -0.18700
C4247       C  0.01153210  0.92001242  0.83005849    -0.20600
C4248       C  0.98530110  0.91821042  0.00521620    -0.13100
C4249       C  0.96963405  0.90260123  0.97930976     0.03600
C4250       C  0.98055567  0.88876063  0.94438259    -0.25300
H4251       H  0.05322922  0.86633847  0.03440108     0.08600
H4252       H  0.00680881  0.86364436  0.04815368     0.12200
H4253       H  0.06124843  0.91839671  0.97602671     0.12200
H4254       H  0.02320015  0.93213253  0.85068826     0.11900
H4255       H  0.97714570  0.92913539  0.86543767     0.12500
H4256       H  0.96853169  0.87664517  0.92433635     0.14400
C4257       C  0.14227054  0.47494639  0.94647285    -0.05600
C4258       C  0.12806023  0.48916472  0.91573406    -0.05500
C4259       C  0.12817710  0.51599413  0.91681670    -0.23700
C4260       C  0.14285954  0.52901751  0.94818241     0.18500
C4261       C  0.15769784  0.51474333  0.97839377     0.15700
C4262       C  0.15723826  0.48796926  0.97740949    -0.18700
C4263       C  0.17236034  0.52741462  0.84328360    -0.20600
C4264       C  0.17153041  0.55398395  0.84619994    -0.13100
C4265       C  0.15657075  0.56847931  0.98362429     0.03600
C4266       C  0.14267187  0.55595424  0.95055575    -0.25300
H4267       H  0.11650494  0.47954259  0.89140456     0.08600
H4268       H  0.11678744  0.52654297  0.89317292     0.12200
H4269       H  0.16846750  0.47722681  0.83444270     0.12200
H4270       H  0.18383730  0.51673491  0.86664659     0.11900
H4271       H  0.18245965  0.56328329  0.87175006     0.12500
H4272       H  0.13105705  0.56703832  0.92794729     0.14400
C4273       C  0.97825879  0.64240003  0.85459015    -0.05600
C4274       C  0.98935497  0.62746201  0.88795970    -0.05500
C4275       C  0.01601649  0.62483165  0.89070841    -0.23700
C4276       C  0.03201913  0.63757165  0.86070693     0.18500
C4277       C  0.02093069  0.65283506  0.99392608     0.15700
C4278       C  0.99419227  0.65496184  0.99087137    -0.18700
C4279       C  0.03674898  0.66563598  0.96390431    -0.20600
C4280       C  0.06331715  0.66318114  0.96655265    -0.13100
C4281       C  0.07464364  0.64822374  0.83308890     0.03600
C4282       C  0.05886793  0.63551291  0.86362045    -0.25300
H4283       H  0.97737616  0.61752369  0.91157283     0.08600
H4284       H  0.02411772  0.61307787  0.91657027     0.12200
H4285       H  0.98576977  0.66654013  0.96503452     0.12200
H4286       H  0.02856519  0.67737100  0.93808409     0.11900
H4287       H  0.07506942  0.67325788  0.94277423     0.12500
H4288       H  0.06743978  0.62395021  0.88931361     0.14400
C4289       C  0.13953275  0.81930722  0.87398878    -0.05600
C4290       C  0.12538820  0.81064951  0.83779372    -0.05500
C4291       C  0.12516596  0.78474371  0.82672602    -0.23700
C4292       C  0.13942249  0.76705121  0.85125346     0.18500
C4293       C  0.15376975  0.77557843  0.88772214     0.15700
C4294       C  0.15362757  0.80162857  0.89899935    -0.18700
C4295       C  0.16797524  0.75787960  0.91233278    -0.20600
C4296       C  0.16765259  0.73196060  0.90139160    -0.13100
C4297       C  0.15352741  0.72333139  0.86519492     0.03600
C4298       C  0.13954816  0.74099004  0.84000585    -0.25300
H4299       H  0.11424614  0.82394437  0.81822516     0.08600
H4300       H  0.11399555  0.77858550  0.79877596     0.12200
H4301       H  0.16469335  0.80818408  0.92683218     0.12200
H4302       H  0.17912828  0.76403363  0.94030549     0.11900
H4303       H  0.17867424  0.71861141  0.92104720     0.12500
H4304       H  0.12845861  0.73437937  0.81223716     0.14400
C4305       C  0.39445376  0.07168004  0.87540729    -0.05600
C4306       C  0.40925104  0.05797300  0.84481127    -0.05500
C4307       C  0.41059139  0.03133347  0.84688849    -0.23700
C4308       C  0.39672999  0.01795970  0.87905465     0.18500
C4309       C  0.38147320  0.03155735  0.90961280     0.15700
C4310       C  0.38054711  0.05834228  0.90773780    -0.18700
C4311       C  0.36773643  0.01813591  0.94194213    -0.20600
C4312       C  0.36963224  0.99151254  0.94467326    -0.13100
C4313       C  0.38467422  0.97791682  0.91433883     0.03600
C4314       C  0.39797352  0.99122310  0.88129897    -0.25300
H4315       H  0.42018618  0.06789970  0.81973946     0.08600
H4316       H  0.42232932  0.02118335  0.82316394     0.12200
H4317       H  0.36908977  0.06880059  0.93149814     0.12200
H4318       H  0.35599477  0.02826314  0.96568614     0.11900
H4319       H  0.35919361  0.98150745  0.97027047     0.12500
H4320       H  0.40967437  0.98078156  0.85785133     0.14400
C4321       C  0.47008768  0.90821497  0.92689679    -0.05600
C4322       C  0.48221294  0.92325641  0.89478601    -0.05500
C4323       C  0.50885281  0.92538406  0.89370857    -0.23700
C4324       C  0.52390478  0.91186285  0.92395891     0.18500
C4325       C  0.51198129  0.89703692  0.95708249     0.15700
C4326       C  0.48501860  0.89561401  0.95877889    -0.18700
C4327       C  0.52731086  0.88340554  0.98703265    -0.20600
C4328       C  0.55413158  0.88395785  0.98343428    -0.13100
C4329       C  0.56595964  0.89783955  0.94946468     0.03600
C4330       C  0.55069812  0.91216128  0.92043292    -0.25300
H4331       H  0.47101165  0.93323775  0.87017470     0.08600
H4332       H  0.51772383  0.93687311  0.86819303     0.12200
H4333       H  0.47573343  0.88395480  0.98364588     0.12200
H4334       H  0.51855578  0.87202191  0.01279152     0.11900
H4335       H  0.56556754  0.87275867  0.00609619     0.12500
H4336       H  0.55971107  0.92303333  0.89422770     0.14400
C4337       C  0.21723171  0.89929690  0.88878436    -0.05600
C4338       C  0.22919612  0.91388325  0.85579376    -0.05500
C4339       C  0.25600983  0.91553963  0.85375160    -0.23700
C4340       C  0.27129363  0.90226845  0.88420152     0.18500
C4341       C  0.25934507  0.88713539  0.91687799     0.15700
C4342       C  0.23252273  0.88581251  0.91898831    -0.18700
C4343       C  0.27438131  0.87396263  0.94760928    -0.20600
C4344       C  0.30100291  0.87645053  0.94704477    -0.13100
C4345       C  0.31315354  0.89151643  0.91498343     0.03600
C4346       C  0.29824038  0.90407503  0.88304377    -0.25300
H4347       H  0.21780523  0.92437740  0.99876661     0.08600
H4348       H  0.26478385  0.92715837  0.99500258     0.12200
H4349       H  0.22352336  0.87437627  0.94447751     0.12200
H4350       H  0.26550420  0.86227617  0.97285269     0.11900
H4351       H  0.31217919  0.86656782  0.97180393     0.12500
H4352       H  0.30753142  0.91580864  0.85828808     0.14400
C4353       C  0.40984158  0.57394603  0.01353339    -0.05600
C4354       C  0.42365091  0.56399126  0.88248154    -0.05500
C4355       C  0.42345645  0.53778494  0.89125543    -0.23700
C4356       C  0.40889310  0.52130826  0.86516506     0.18500
C4357       C  0.39487192  0.53126886  0.82926441     0.15700
C4358       C  0.39567954  0.55751577  0.98671768    -0.18700
C4359       C  0.38013350  0.51483053  0.97010793    -0.20600
C4360       C  0.37944572  0.48871576  0.81283584    -0.13100
C4361       C  0.39322235  0.47867589  0.84855471     0.03600
C4362       C  0.40792840  0.49509144  0.87462306    -0.25300
H4363       H  0.43462511  0.57652111  0.90348189     0.08600
H4364       H  0.43430314  0.53047747  0.91888872     0.12200
H4365       H  0.38476840  0.56527822  0.95947927     0.12200
H4366       H  0.36925218  0.52214899  0.94252052     0.11900
H4367       H  0.36799419  0.47636114  0.95895359     0.12500
H4368       H  0.41875358  0.48745373  0.90205277     0.14400
C4369       C  0.57497424  0.63601096  0.89320334    -0.05600
C4370       C  0.55859267  0.62173918  0.92036028    -0.05500
C4371       C  0.53214798  0.62194247  0.91321210    -0.23700
C4372       C  0.52166271  0.63703126  0.87956661     0.18500
C4373       C  0.53803898  0.65135745  0.85182137     0.15700
C4374       C  0.56465543  0.65049975  0.85851184    -0.18700
C4375       C  0.52744650  0.66642240  0.98482798    -0.20600
C4376       C  0.50088956  0.66698804  0.97833319    -0.13100
C4377       C  0.48457717  0.65315670  0.00628303     0.03600
C4378       C  0.49505359  0.63828147  0.87357815    -0.25300
H4379       H  0.56628035  0.61049332  0.94722538     0.08600
H4380       H  0.51984000  0.61087546  0.93477031     0.12200
H4381       H  0.57725848  0.66170831  0.00436012     0.12200
H4382       H  0.53972073  0.67743912  0.96314230     0.11900
H4383       H  0.49304880  0.67847272  0.95190055     0.12500
H4384       H  0.48244479  0.62745972  0.89505259     0.14400
C4385       C  0.23204098  0.64935181  0.00912073    -0.05600
C4386       C  0.24342129  0.66439736  0.87500688    -0.05500
C4387       C  0.26995569  0.66765267  0.87583479    -0.23700
C4388       C  0.28556727  0.65527080  0.84487621     0.18500
C4389       C  0.27429153  0.63985346  0.97883122     0.15700
C4390       C  0.24750372  0.63726951  0.97747035    -0.18700
C4391       C  0.29003316  0.62739869  0.94806260    -0.20600
C4392       C  0.31666419  0.63039363  0.94943637    -0.13100
C4393       C  0.32796511  0.64542794  0.98216533     0.03600
C4394       C  0.31227818  0.65784259  0.84643478    -0.25300
H4395       H  0.23168373  0.67402554  0.89935799     0.08600
H4396       H  0.27829997  0.67953800  0.90109249     0.12200
H4397       H  0.23869421  0.62570608  0.95220507     0.12200
H4398       H  0.28173917  0.61551525  0.92275767     0.11900
H4399       H  0.32846402  0.62058775  0.92540301     0.12500
H4400       H  0.32087272  0.66952658  0.87176130     0.14400
C4401       C  0.39989075  0.82169715  0.92683722    -0.05600
C4402       C  0.41591463  0.80865349  0.89720774    -0.05500
C4403       C  0.41965542  0.78224000  0.90123431    -0.23700
C4404       C  0.40689087  0.76843777  0.93427210     0.18500
C4405       C  0.39029216  0.78147377  0.96355135     0.15700
C4406       C  0.38710459  0.80798808  0.95989038    -0.18700
C4407       C  0.37742137  0.76786045  0.99651771    -0.20600
C4408       C  0.38162807  0.74169236  0.00152781    -0.13100
C4409       C  0.39826003  0.72855606  0.97301629     0.03600
C4410       C  0.41052537  0.74191441  0.93883313    -0.25300
H4411       H  0.42594394  0.81898365  0.87151129     0.08600
H4412       H  0.43235606  0.77259567  0.87835549     0.12200
H4413       H  0.37463955  0.81798924  0.98275509     0.12200
H4414       H  0.36460092  0.77756094  0.01914074     0.11900
H4415       H  0.37176840  0.73164522  0.02775346     0.12500
H4416       H  0.42326000  0.73181496  0.91656375     0.14400
loop_ 
_geom_bond_atom_site_label_1 
_geom_bond_atom_site_label_2 
_geom_bond_distance 
_geom_bond_site_symmetry_2 
_ccdc_geom_bond_type 
O1           Cu9   2.009       .  S
O1           C11   1.277       .  A
O2           Cu9   2.014       .  S
O2           C12   1.277       .  A
O3           Cu9   2.018       .  S
O3           C13   1.278       .  A
O4           Cu9   2.015       .  S
O4           C14   1.278       .  A
O5          Cu10   1.997       .  S
O5         C3694   1.276   1_554  A
O6          Cu10   1.998       .  S
O6         C3693   1.276       .  A
O7          Cu10   1.995       .  S
O7         C3692   1.276   1_554  A
O8          Cu10   1.993       .  S
O8         C3691   1.275       .  A
Cu9        Cu746   2.373       .  S
Cu10      Cu3689   2.373   1_554  S
C11         O744   1.275       .  A
C11         C673   1.465       .  S
C12         O743   1.276       .  A
C12         C729   1.472       .  S
C13         O742   1.276       .  A
C13         C697   1.470       .  S
C14         O741   1.276       .  A
C14         C713   1.474       .  S
O15         Cu23   2.013       .  S
O15          C25   1.277       .  A
O16         Cu23   1.999       .  S
O16          C26   1.276       .  A
O17         Cu23   2.020       .  S
O17          C27   1.277       .  A
O18         Cu23   2.004       .  S
O18          C28   1.277       .  A
O19         Cu24   2.022       .  S
O19          C28   1.278       .  A
O20         Cu24   2.005       .  S
O20          C27   1.277       .  A
O21         Cu24   2.011       .  S
O21          C26   1.277       .  A
O22         Cu24   1.995       .  S
O22          C25   1.275       .  A
Cu23        Cu24   2.372       .  S
C25         C633   1.471       .  S
C26         C721   1.471       .  S
C27         C641   1.475       .  S
C28         C665   1.476       .  S
O29         Cu37   2.031       .  S
O29          C39   1.279       .  A
O30         Cu37   2.029       .  S
O30         C776   1.280       .  A
O31         Cu37   2.005       .  S
O31          C41   1.276       .  A
O32         Cu37   1.990       .  S
O32         C778   1.275       .  A
O33         Cu38   2.025       .  S
O33          C42   1.279       .  A
O34         Cu38   2.008       .  S
O34        C3721   1.277       .  A
O35         Cu38   1.993       .  S
O35          C40   1.274       .  A
O36         Cu38   1.995       .  S
O36        C3719   1.276   1_554  A
Cu37       Cu774   2.370       .  S
Cu38      Cu3717   2.370   1_554  S
C39         O772   1.276       .  A
C39         C585   1.476       .  S
C40        O3710   1.280   1_554  A
C40         C617   1.474       .  S
C41         O770   1.277       .  A
C41         C705   1.469       .  S
C42        O3712   1.275   1_554  A
C42         C601   1.477   1_554  S
O43         Cu51   1.995       .  S
O43          C53   1.275       .  A
O44         Cu51   1.999       .  S
O44          C54   1.276       .  A
O45         Cu51   2.033       .  S
O45          C55   1.281       .  A
O46         Cu51   2.019       .  S
O46          C56   1.278       .  A
O47         Cu52   2.004       .  S
O47          C56   1.276       .  A
O48         Cu52   1.993       .  S
O48          C55   1.276       .  A
O49         Cu52   2.026       .  S
O49          C54   1.279       .  A
O50         Cu52   2.026       .  S
O50          C53   1.280       .  A
Cu51        Cu52   2.369       .  S
C53         C609   1.477       .  S
C54         C545   1.478       .  S
C55         C657   1.481       .  S
C56         C561   1.471       .  S
O57         Cu65   2.025       .  S
O57          C67   1.280       .  A
O58         Cu65   2.025   1_556  S
O58          C68   1.278   1_556  A
O59         Cu65   1.991       .  S
O59          C69   1.275       .  A
O60         Cu65   1.990   1_556  S
O60          C70   1.275   1_556  A
O61         Cu66   2.012       .  S
O61          C70   1.279       .  A
O62         Cu66   2.014       .  S
O62          C69   1.277       .  A
O63         Cu66   1.988       .  S
O63          C68   1.275       .  A
O64         Cu66   1.988       .  S
O64          C67   1.275       .  A
Cu65        Cu66   2.368       .  S
C67         C529   1.476       .  S
C68         C505   1.470       .  S
C69         C513   1.466       .  S
C70         C681   1.472       .  S
O71         Cu79   2.017       .  S
O71          C81   1.278       .  A
O72         Cu79   2.020       .  S
O72          C82   1.277       .  A
O73         Cu79   2.009       .  S
O73          C83   1.276       .  A
O74         Cu79   1.996       .  S
O74          C84   1.276       .  A
O75         Cu80   2.030       .  S
O75          C84   1.280       .  A
O76         Cu80   2.011       .  S
O76          C83   1.277       .  A
O77         Cu80   2.002       .  S
O77          C82   1.277       .  A
O78         Cu80   1.998       .  S
O78          C81   1.275       .  A
Cu79        Cu80   2.368       .  S
C81         C537   1.473       .  S
C82         C473   1.475       .  S
C83         C481   1.470       .  S
C84         C577   1.481       .  S
O85         Cu93   2.001       .  S
O85          C95   1.276       .  A
O86         Cu93   2.010       .  S
O86          C96   1.277       .  A
O87         Cu93   2.014       .  S
O87          C97   1.278       .  A
O88         Cu93   2.000       .  S
O88          C98   1.277       .  A
O89       Cu3774   2.007       .  S
O89          C98   1.277       .  A
O90       Cu3774   1.990       .  S
O90          C97   1.276       .  A
O91       Cu3774   1.992       .  S
O91          C96   1.275       .  A
O92         Cu94   2.005       .  S
O92         C831   1.276       .  A
Cu93      Cu3774   2.371       .  S
Cu94        O825   2.007       .  S
Cu94        O826   1.990       .  S
Cu94        O827   1.992       .  S
Cu94       Cu829   2.371       .  S
C95        O3772   1.276   1_554  A
C95         C457   1.469       .  S
C96         C433   1.466       .  S
C97         C521   1.473       .  S
C98         C625   1.473       .  S
O99        Cu107   2.003       .  S
O99         C109   1.277       .  A
O100       Cu107   2.003       .  S
O100        C110   1.276       .  A
O101       Cu107   2.007       .  S
O101        C111   1.277       .  A
O102       Cu107   2.010       .  S
O102        C112   1.277       .  A
O103       Cu108   1.994       .  S
O103       C3792   1.275       .  A
O104       Cu108   1.992       .  S
O104       C3791   1.275   1_554  A
O105       Cu108   2.020       .  S
O105       C3790   1.278   1_554  A
O106       Cu108   2.018       .  S
O106       C3789   1.279   1_554  A
Cu107      Cu844   2.372       .  S
Cu108     Cu3787   2.372   1_554  S
C109        O842   1.279       .  A
C109        C489   1.478       .  S
C110        O841   1.278       .  A
C110        C553   1.472       .  S
C111        O840   1.275       .  A
C111        C417   1.466       .  S
C112        O839   1.275       .  A
C112       C1185   1.469       .  S
O113       Cu121   2.024       .  S
O113        C859   1.279       .  A
O114       Cu121   2.022       .  S
O114        C860   1.280       .  A
O115       Cu121   1.986       .  S
O115        C861   1.274       .  A
O116       Cu121   1.977       .  S
O116        C862   1.273       .  A
O117       Cu122   2.042       .  S
O117        C126   1.281       .  A
O118       Cu122   2.029       .  S
O118        C125   1.280       .  A
O119       Cu122   1.991       .  S
O119        C124   1.274       .  A
O120       Cu122   1.988       .  S
O120        C123   1.275       .  A
Cu121      Cu858   2.369       .  S
Cu122     Cu3801   2.369       .  S
C123       O3793   1.279       .  A
C123        C497   1.474       .  S
C124       O3794   1.280       .  A
C124        C393   1.476       .  S
C125       O3795   1.274       .  A
C125        C409   1.475       .  S
C126       O3796   1.273       .  A
C126        C377   1.473       .  S
O127       Cu135   1.993       .  S
O127        C873   1.276       .  A
O128       Cu135   1.998       .  S
O128        C874   1.275       .  A
O129       Cu135   2.006       .  S
O129        C875   1.274       .  A
O130       Cu135   2.008       .  S
O130        C876   1.278       .  A
O131       Cu136   2.008       .  S
O131        C140   1.276   1_554  A
O132       Cu136   2.009   1_556  S
O132        C139   1.277       .  A
O133       Cu136   2.010       .  S
O133        C138   1.277   1_554  A
O134       Cu136   2.011       .  S
O134        C137   1.277   1_554  A
Cu135      Cu872   2.360       .  S
Cu136     Cu3815   2.360   1_554  S
C137       O3807   1.276       .  A
C137       C4121   1.474       .  S
C138       O3808   1.275       .  A
C138        C353   1.466       .  S
C139       O3809   1.274       .  A
C139       C4017   1.471       .  S
C140       O3810   1.278       .  A
C140        C401   1.475   1_556  S
O141       Cu149   1.989       .  S
O141        C151   1.275       .  A
O142       Cu149   1.998       .  S
O142        C152   1.276       .  A
O143       Cu149   2.031       .  S
O143        C153   1.280       .  A
O144       Cu149   2.028       .  S
O144        C154   1.279       .  A
O145       Cu150   1.985       .  S
O145        C154   1.274       .  A
O146       Cu150   1.990       .  S
O146        C153   1.275       .  A
O147       Cu150   2.010       .  S
O147        C152   1.277       .  A
O148       Cu150   2.009       .  S
O148        C151   1.277       .  A
Cu149      Cu150   2.366       .  S
C151        C313   1.467       .  S
C152        C329   1.471       .  S
C153        C465   1.477       .  S
C154        C385   1.471       .  S
O155       Cu163   2.021       .  S
O155        C165   1.279   1_554  A
O156       Cu163   2.007   1_556  S
O156        C166   1.277       .  A
O157       Cu163   2.002       .  S
O157        C167   1.276   1_554  A
O158       Cu163   1.996       .  S
O158        C168   1.276   1_554  A
O159       Cu164   2.003       .  S
O159        C904   1.277       .  A
O160       Cu164   2.006       .  S
O160        C903   1.277       .  A
O161       Cu164   2.000       .  S
O161        C902   1.276       .  A
O162       Cu164   1.987       .  S
O162        C901   1.275       .  A
Cu163     Cu3844   2.372   1_554  S
Cu164      Cu899   2.372       .  S
C165       O3842   1.275       .  A
C165        C289   1.472       .  S
C166       O3841   1.276       .  A
C166       C4001   1.468       .  S
C167       O3840   1.277       .  A
C167        C361   1.473       .  S
C168       O3839   1.277       .  A
C168        C425   1.468       .  S
O169       Cu177   2.006       .  S
O169        C179   1.275       .  A
O170       Cu177   2.012       .  S
O170        C180   1.278       .  A
O171       Cu177   2.016       .  S
O171        C181   1.278       .  A
O172       Cu177   2.009       .  S
O172        C182   1.276       .  A
O173       Cu178   2.017       .  S
O173        C182   1.278       .  A
O174       Cu178   2.001       .  S
O174        C181   1.276       .  A
O175       Cu178   1.998       .  S
O175        C180   1.275       .  A
O176       Cu178   2.014       .  S
O176        C179   1.278       .  A
Cu177      Cu178   2.373       .  S
C179        C369   1.471       .  S
C180        C265   1.467       .  S
C181        C689   1.471       .  S
C182        C273   1.474       .  S
O183       Cu191   2.011       .  S
O183        C193   1.277       .  A
O184       Cu191   2.014       .  S
O184       C3874   1.278       .  A
O185       Cu191   1.985       .  S
O185        C195   1.275       .  A
O186       Cu191   2.006       .  S
O186       C3876   1.276       .  A
O187       Cu192   2.003       .  S
O187        C196   1.276       .  A
O188       Cu192   2.013       .  S
O188        C931   1.277       .  A
O189       Cu192   2.010       .  S
O189        C194   1.277       .  A
O190       Cu192   2.007       .  S
O190        C929   1.277       .  A
Cu191     Cu3872   2.371   1_554  S
Cu192      Cu927   2.371       .  S
C193       O3870   1.277   1_554  A
C193        C593   1.476       .  S
C194        O920   1.278       .  A
C194        C281   1.476       .  S
C195       O3868   1.277   1_554  A
C195        C305   1.469   1_554  S
C196        O922   1.276       .  A
C196        C249   1.469       .  S
O197       Cu205   2.044       .  S
O197        C207   1.282       .  A
O198       Cu205   2.045       .  S
O198        C208   1.282       .  A
O199       Cu205   1.991       .  S
O199        C209   1.274       .  A
O200       Cu205   1.990       .  S
O200        C210   1.275       .  A
O201       Cu206   2.035       .  S
O201        C210   1.280       .  A
O202       Cu206   2.025       .  S
O202        C209   1.280       .  A
O203       Cu206   1.963       .  S
O203        C208   1.272       .  A
O204       Cu206   1.964       .  S
O204        C207   1.272       .  A
Cu205      Cu206   2.367       .  S
C207        C257   1.477       .  S
C208        C345   1.475       .  S
C209        C233   1.473       .  S
C210        C649   1.478       .  S
O211       Cu219   2.021       .  S
O211       C3901   1.279       .  A
O212       Cu219   2.007       .  S
O212       C3902   1.276       .  A
O213       Cu219   1.998       .  S
O213       C3903   1.275       .  A
O214       Cu219   2.004       .  S
O214       C3904   1.276   1_554  A
O215       Cu220   2.020       .  S
O215        C224   1.278       .  A
O216       Cu220   2.019       .  S
O216        C223   1.278       .  A
O217       Cu220   2.002       .  S
O217        C222   1.276       .  A
O218       Cu220   1.989       .  S
O218        C221   1.275       .  A
Cu219     Cu3900   2.370   1_554  S
Cu220      Cu955   2.370       .  S
C221        O947   1.279       .  A
C221        C241   1.475       .  S
C222        O948   1.276       .  A
C222        C297   1.466       .  S
C223        O949   1.275       .  A
C223        C961   1.472       .  S
C224        O950   1.276       .  A
C224        C569   1.474       .  S
C225       C3903   1.472       .  S
C225        C226   1.404       .  A
C225       C3910   1.403       .  A
C226        C227   1.396       .  A
C226        H235   1.083       .  S
C227        C228   1.400       .  A
C227        H236   1.084       .  S
C228        C234   1.404       .  A
C228       C3909   1.416       .  A
C229        C231   1.401       .  A
C229        C230   1.405       .  A
C229        C964   1.416       .  A
C230        C961   1.403       .  A
C230        H237   1.084       .  S
C231        C232   1.397       .  A
C231        H238   1.084       .  S
C232        C969   1.405       .  A
C232        H239   1.083       .  S
C233        C234   1.402       .  A
C233       C3912   1.405       .  A
C234        H240   1.085       .  S
C241        C242   1.406       .  A
C241        C246   1.405       .  A
C242        C243   1.394       .  A
C242        H251   1.083       .  S
C243        C244   1.400       .  A
C243        H252   1.084       .  S
C244        C250   1.401       .  A
C244        C245   1.415       .  A
C245        C247   1.403       .  A
C245        C246   1.404       .  A
C246        H253   1.084       .  S
C247        C248   1.398       .  A
C247        H254   1.084       .  S
C248        C249   1.403       .  A
C248        H255   1.083       .  S
C249        C250   1.401       .  A
C250        H256   1.085       .  S
C257        C258   1.408       .  A
C257        C262   1.405       .  A
C258        C259   1.389       .  A
C258        H267   1.084       .  S
C259        C260   1.395       .  A
C259        H268   1.084       .  S
C260        C266   1.399       .  A
C260        C261   1.416       .  A
C261        C263   1.403       .  A
C261        C262   1.409       .  A
C262        H269   1.084       .  S
C263        C264   1.400       .  A
C263        H270   1.083       .  S
C264        C265   1.404       .  A
C264        H271   1.083       .  S
C265        C266   1.397       .  A
C266        H272   1.085       .  S
C273        C274   1.403       .  A
C273        C278   1.404       .  A
C274        C275   1.398       .  A
C274        H283   1.083       .  S
C275        C276   1.403       .  A
C275        H284   1.084       .  S
C276        C282   1.406       .  A
C276        C277   1.415       .  A
C277        C278   1.405       .  A
C277       C1015   1.402       .  A
C278       H1021   1.084       .  S
C279        C280   1.398       .  A
C279       C3957   1.402   1_554  A
C279        H286   1.084       .  S
C280       C3961   1.404   1_554  A
C280        H287   1.083       .  S
C281        C282   1.405       .  A
C281       C1016   1.404       .  A
C282        H288   1.084       .  S
H285       C3958   1.084       .  S
C289        C294   1.405   1_556  A
C289       C3970   1.404       .  A
C290        C291   1.392       .  A
C290       C1025   1.404       .  A
C290        H299   1.083       .  S
C291        C292   1.399       .  A
C291        H300   1.084       .  S
C292        C298   1.399   1_545  A
C292       C1029   1.415       .  A
C293        C295   1.404       .  A
C293        C294   1.406       .  A
C293       C3972   1.415   1_554  A
C294        H301   1.084       .  S
C295        C296   1.399   1_545  A
C295        H302   1.084       .  S
C296       C3977   1.403       .  A
C296        H303   1.083       .  S
C297        C298   1.399       .  A
C297       C1032   1.403       .  A
C298        H304   1.085       .  S
C305        C310   1.401   1_556  A
C305       C3986   1.404       .  A
C306        C307   1.399       .  A
C306       C1041   1.404       .  A
C306        H315   1.083       .  S
C307       C1044   1.404       .  A
C307        H316   1.084       .  S
C308        C309   1.414       .  A
C308       C3987   1.404   1_554  A
C308       C3994   1.404       .  A
C309        C311   1.399       .  A
C309        C310   1.396       .  A
C310        H317   1.085       .  S
C311        C312   1.391       .  A
C311        H318   1.084       .  S
C312        C313   1.403       .  A
C312        H319   1.084       .  S
C313       C3994   1.404       .  A
C314       C1044   1.404       .  A
C314       C1049   1.404       .  A
C314        H320   1.084       .  S
C321        C902   1.468       .  S
C321        C322   1.403       .  A
C321        C326   1.402       .  A
C322        C323   1.396       .  A
C322       H1067   1.084       .  S
C323        C324   1.402       .  A
C323        H332   1.084       .  S
C324        C330   1.402       .  A
C324        C325   1.415       .  A
C325        C327   1.401       .  A
C325        C326   1.402       .  A
C326        H333   1.085       .  S
C327        C328   1.396       .  A
C327        H334   1.084       .  S
C328        C329   1.403       .  A
C328        H335   1.083       .  S
C329        C330   1.404       .  A
C330        H336   1.085       .  S
H331       C4002   1.084   1_554  S
C337        C875   1.471       .  S
C337        C338   1.405       .  A
C337       C1078   1.398       .  A
C338        C339   1.400       .  A
C338        H347   1.082       .  S
C339        C340   1.403       .  A
C339        H348   1.084       .  S
C340        C346   1.409   1_545  A
C340        C341   1.417       .  A
C341       C1079   1.396       .  A
C341       C1078   1.399       .  A
C342       C4017   1.398       .  A
C342       C4021   1.399       .  A
C342        H349   1.085       .  S
C343       C4021   1.396       .  A
C343       C4024   1.389   1_545  A
C343        H350   1.084       .  S
C344        C345   1.407       .  A
C344       C1079   1.389   1_565  A
C344       H1087   1.084       .  S
C345        C346   1.405       .  A
C346        H352   1.084       .  S
H351       C4024   1.084       .  S
C353        C354   1.402   1_556  A
C353        C358   1.402       .  A
C354        C355   1.397       .  A
C354        H363   1.083       .  S
C355        C356   1.403   1_554  A
C355        H364   1.084       .  S
C356        C362   1.402       .  A
C356        C357   1.414       .  A
C357        C358   1.402       .  A
C357       C4039   1.401       .  A
C358       H4045   1.085       .  S
C359        C360   1.395       .  A
C359       C1093   1.401       .  A
C359        H366   1.084       .  S
C360       C1097   1.404       .  A
C360        H367   1.083       .  S
C361        C362   1.404       .  A
C361       C4040   1.404       .  A
C362        H368   1.084   1_556  S
H365       C1094   1.085       .  S
C369        C370   1.404       .  A
C369        C374   1.400       .  A
C370        C371   1.402       .  A
C370        H379   1.083       .  S
C371        C372   1.405       .  A
C371        H380   1.083       .  S
C372        C378   1.410       .  A
C372        C373   1.416       .  A
C373        C375   1.398       .  A
C373        C374   1.400       .  A
C374        H381   1.085       .  S
C375        C376   1.391       .  A
C375        H382   1.084       .  S
C376        C377   1.404       .  A
C376       H4063   1.084       .  S
C377        C378   1.406       .  A
C378        H384   1.084       .  S
H383       C1112   1.084       .  S
C385        C386   1.404       .  A
C385        C390   1.403       .  A
C386        C387   1.393       .  A
C386        H395   1.084   1_554  S
C387        C388   1.399       .  A
C387       H4076   1.084   1_554  S
C388        C394   1.402       .  A
C388        C389   1.416       .  A
C389        C391   1.401       .  A
C389        C390   1.406       .  A
C390        H397   1.084       .  S
C391        C392   1.397       .  A
C391        H398   1.084       .  S
C392        C393   1.406       .  A
C392        H399   1.083       .  S
C393        C394   1.402       .  A
C394       H4080   1.084       .  S
H396       C1123   1.084       .  S
H400       C1130   1.084       .  S
C401        C402   1.405       .  A
C401       C4086   1.402   1_554  A
C402        C403   1.400       .  A
C402        H411   1.083       .  S
C403        C404   1.403       .  A
C403        H412   1.084       .  S
C404        C410   1.407       .  A
C404       C4085   1.415       .  A
C405        C407   1.399       .  A
C405        C406   1.400       .  A
C405       C1140   1.415       .  A
C406       C1137   1.402       .  A
C406        H413   1.085       .  S
C407        C408   1.393       .  A
C407        H414   1.084       .  S
C408       C1145   1.405       .  A
C408        H415   1.083       .  S
C409        C410   1.405       .  A
C409       C4088   1.405   1_554  A
C410        H416   1.084       .  S
C417        C418   1.402       .  A
C417        C422   1.402       .  A
C418        C419   1.397       .  A
C418        H427   1.083       .  S
C419       C1156   1.403       .  A
C419        H428   1.084       .  S
C420        C426   1.401   1_455  A
C420        C421   1.414       .  A
C420       C4099   1.403       .  A
C421        C423   1.401   1_556  A
C421       C4102   1.399       .  A
C422       C1157   1.399       .  A
C422       H1165   1.085       .  S
C423        C424   1.394   1_455  A
C423        H430   1.084       .  S
C424        C425   1.403   1_554  A
C424        H431   1.083       .  S
C425        C426   1.403       .  A
C426        H432   1.085       .  S
H429       C4102   1.085   1_554  S
C433        C434   1.402       .  A
C433        C438   1.404       .  A
C434        C435   1.392       .  A
C434        H443   1.084       .  S
C435        C436   1.399       .  A
C435        H444   1.084       .  S
C436        C442   1.397       .  A
C436        C437   1.414       .  A
C437        C438   1.404       .  A
C437       C1175   1.403       .  A
C438        H445   1.084       .  S
C439        C440   1.399       .  A
C439       C4117   1.403       .  A
C439        H446   1.084       .  S
C440       C4121   1.405       .  A
C440        H447   1.083   1_556  S
C441        C873   1.474       .  S
C441        C442   1.403       .  A
C441       C1176   1.405       .  A
C442        H448   1.085       .  S
C449       C3792   1.469       .  S
C449        C450   1.404       .  A
C449       C4134   1.403   1_554  A
C450        C451   1.394       .  A
C450        H459   1.083       .  S
C451        C452   1.400       .  A
C451        H460   1.084       .  S
C452        C458   1.400       .  A
C452       C4133   1.414   1_554  A
C453        C455   1.402       .  A
C453        C454   1.403       .  A
C453       C1188   1.414       .  A
C454       C1185   1.403       .  A
C454        H461   1.084       .  S
C455        C456   1.397       .  A
C455        H462   1.084       .  S
C456       C1193   1.403       .  A
C456        H463   1.083       .  S
C457        C458   1.402       .  A
C457       C4136   1.403   1_554  A
C458        H464   1.085       .  S
C465        C466   1.405       .  A
C465        C470   1.403       .  A
C466        C467   1.403   1_655  A
C466        H475   1.083       .  S
C467       C4148   1.406       .  A
C467       H4156   1.083       .  S
C468        C474   1.409       .  A
C468       C1203   1.406       .  A
C468       C1205   1.414       .  A
C469        C470   1.399   1_455  A
C469       C4148   1.414       .  A
C469       C4151   1.399   1_554  A
C470        H477   1.085   1_554  S
C471        C472   1.393       .  A
C471       C1205   1.399       .  A
C471       H1214   1.084       .  S
C472        C473   1.403       .  A
C472        H479   1.084       .  S
C473        C474   1.408       .  A
C474        H480   1.084       .  S
H476       C1203   1.083       .  S
H478       C4151   1.084       .  S
C481        C482   1.402       .  A
C481        C486   1.404       .  A
C482        C483   1.396       .  A
C482        H491   1.084       .  S
C483        C484   1.402       .  A
C483        H492   1.084       .  S
C484        C490   1.403       .  A
C484        C485   1.414       .  A
C485        C486   1.406       .  A
C485       C1223   1.403       .  A
C486        H493   1.084       .  S
C487        C488   1.399       .  A
C487       C4165   1.403   1_554  A
C487        H494   1.084       .  S
C488       C4169   1.405   1_554  A
C488        H495   1.083       .  S
C489        C490   1.405       .  A
C489       C1224   1.405       .  A
C490        H496   1.084       .  S
C497        C498   1.404       .  A
C497        C502   1.407       .  A
C498        C499   1.390       .  A
C498        H507   1.083       .  S
C499        C500   1.398       .  A
C499        H508   1.084       .  S
C500        C506   1.397       .  A
C500        C501   1.414       .  A
C501        C503   1.406   1_554  A
C501        C502   1.408       .  A
C502        H509   1.084   1_554  S
C503        C504   1.403       .  A
C503        H510   1.083       .  S
C504        C505   1.403   1_556  A
C504        H511   1.083       .  S
C505        C506   1.400       .  A
C506        H512   1.085       .  S
C513        C514   1.402       .  A
C513        C518   1.400       .  A
C514        C515   1.399       .  A
C514        H523   1.083       .  S
C515        C516   1.404       .  A
C515        H524   1.084       .  S
C516        C522   1.404       .  A
C516        C517   1.414       .  A
C517        C518   1.398       .  A
C517       C4199   1.399       .  A
C518       H4205   1.085       .  S
C519        C520   1.392       .  A
C519       C1253   1.399       .  A
C519        H526   1.084       .  S
C520       C1257   1.405       .  A
C520        H527   1.083       .  S
C521        C522   1.406       .  A
C521       C4200   1.405       .  A
C522        H528   1.084       .  S
H525       C1254   1.085       .  S
C529        C530   1.406       .  A
C529        C534   1.404       .  A
C530        C531   1.395       .  A
C530        H539   1.083       .  S
C531        C532   1.399       .  A
C531       H1276   1.084       .  S
C532        C538   1.403       .  A
C532        C533   1.415       .  A
C533        C535   1.401       .  A
C533        C534   1.405       .  A
C534       H4221   1.084       .  S
C535        C536   1.397       .  A
C535       H4222   1.084       .  S
C536        C537   1.405       .  A
C536       H4223   1.083       .  S
C537        C538   1.402       .  A
C538        H544   1.085       .  S
H540       C4211   1.084       .  S
H541       C1270   1.084       .  S
H542       C1271   1.084       .  S
H543       C1272   1.083       .  S
C545        C546   1.405       .  A
C545        C550   1.407       .  A
C546        C547   1.395   1_565  A
C546        H555   1.083       .  S
C547        C548   1.400       .  A
C547        H556   1.084       .  S
C548        C554   1.403       .  A
C548        C549   1.415       .  A
C549        C551   1.404       .  A
C549        C550   1.408   1_545  A
C550        H557   1.084       .  S
C551        C552   1.401       .  A
C551        H558   1.084       .  S
C552        C553   1.403       .  A
C552        H559   1.083       .  S
C553        C554   1.402       .  A
C554        H560   1.085       .  S
C561        C562   1.403       .  A
C561        C566   1.402       .  A
C562        C563   1.401       .  A
C562       H4251   1.083       .  S
C563        C564   1.404       .  A
C563       H4252   1.084       .  S
C564        C570   1.407   1_455  A
C564        C565   1.415       .  A
C565        C566   1.402       .  A
C565       C1303   1.401       .  A
C566        H573   1.085       .  S
C567       C4245   1.401       .  A
C567       C4248   1.395   1_456  A
C567        H574   1.084   1_556  S
C568        C569   1.403       .  A
C568       C1303   1.395   1_655  A
C568       H1311   1.084       .  S
C569        C570   1.406       .  A
C570        H576   1.084       .  S
H571       C1298   1.083       .  S
H572       C1299   1.084       .  S
H575       C4248   1.084       .  S
C577        C578   1.405       .  A
C577        C582   1.405       .  A
C578        C579   1.403       .  A
C578        H587   1.083       .  S
C579        C580   1.406       .  A
C579        H588   1.084       .  S
C580        C586   1.410       .  A
C580        C581   1.414       .  A
C581        C582   1.401       .  A
C581       C1319   1.400       .  A
C582       H1325   1.085       .  S
C583        C584   1.393       .  A
C583       C4261   1.400   1_554  A
C583        H590   1.084       .  S
C584       C4265   1.404   1_554  A
C584        H591   1.084       .  S
C585        C586   1.408       .  A
C585       C1320   1.404       .  A
C586        H592   1.084       .  S
H589       C4262   1.085   1_554  S
C593        C594   1.405       .  A
C593       C4278   1.403   1_554  A
C594        C595   1.399   1_655  A
C594        H603   1.083       .  S
C595        C596   1.403       .  A
C595        H604   1.084       .  S
C596        C602   1.407       .  A
C596       C4277   1.414   1_554  A
C597        C599   1.399       .  A
C597        C598   1.402   1_455  A
C597       C1332   1.414       .  A
C598       C1329   1.403       .  A
C598        H605   1.085       .  S
C599        C600   1.393       .  A
C599        H606   1.084       .  S
C600       C1337   1.406       .  A
C600        H607   1.083       .  S
C601        C602   1.406   1_556  A
C601       C4280   1.406       .  A
C602        H608   1.084       .  S
C609        C610   1.406       .  A
C609        C614   1.404       .  A
C610        C611   1.397   1_554  A
C610        H619   1.083   1_554  S
C611        C612   1.401   1_556  A
C611        H620   1.084       .  S
C612        C618   1.406       .  A
C612        C613   1.416       .  A
C613        C615   1.401       .  A
C613        C614   1.406       .  A
C614        H621   1.084       .  S
C615        C616   1.397       .  A
C615        H622   1.084       .  S
C616        C617   1.405       .  A
C616        H623   1.083       .  S
C617        C618   1.403       .  A
C618        H624   1.084   1_554  S
C625        C626   1.404       .  A
C625        C630   1.405       .  A
C626        C627   1.396       .  A
C626        H635   1.083   1_554  S
C627        C628   1.402       .  A
C627        H636   1.084   1_554  S
C628        C634   1.401   1_545  A
C628        C629   1.414       .  A
C629        C631   1.403       .  A
C629        C630   1.402       .  A
C630        H637   1.084       .  S
C631        C632   1.397   1_545  A
C631        H638   1.084       .  S
C632        C633   1.403       .  A
C632        H639   1.083       .  S
C633        C634   1.404       .  A
C634        H640   1.085       .  S
C641        C642   1.403       .  A
C641        C646   1.408       .  A
C642        C643   1.394       .  A
C642        H651   1.084       .  S
C643        C644   1.401       .  A
C643        H652   1.084       .  S
C644        C650   1.401       .  A
C644        C645   1.414       .  A
C645        C647   1.406       .  A
C645        C646   1.409       .  A
C646        H653   1.084       .  S
C647        C648   1.403       .  A
C647        H654   1.084       .  S
C648        C649   1.404       .  A
C648        H655   1.083       .  S
C649        C650   1.405       .  A
C650        H656   1.085       .  S
C657        C658   1.405       .  A
C657        C662   1.406       .  A
C658        C659   1.402       .  A
C658       H4347   1.083   1_554  S
C659        C660   1.405       .  A
C659       H4348   1.084   1_554  S
C660        C666   1.409       .  A
C660        C661   1.413       .  A
C661        C663   1.401       .  A
C661        C662   1.402       .  A
C662        H669   1.085       .  S
C663        C664   1.395       .  A
C663        H670   1.084       .  S
C664        C665   1.403       .  A
C664        H671   1.084       .  S
C665        C666   1.407       .  A
C666        H672   1.084       .  S
H667       C1394   1.083       .  S
H668       C1395   1.084       .  S
C673        C678   1.401       .  A
C673       C1410   1.402       .  A
C674        C675   1.395       .  A
C674       C4353   1.402       .  A
C674        H683   1.083       .  S
C675        C676   1.401       .  A
C675        H684   1.084       .  S
C676        C682   1.401       .  A
C676        C677   1.415   1_554  A
C677       C4359   1.400       .  A
C677       C4358   1.401       .  A
C678       C1413   1.401       .  A
C678        H685   1.085       .  S
C679       C1413   1.400       .  A
C679       C1416   1.395       .  A
C679        H686   1.084       .  S
C680        C681   1.405   1_556  A
C680       C4359   1.395       .  A
C680       H4367   1.083       .  S
C681        C682   1.403       .  A
C682        H688   1.084       .  S
H687       C1416   1.083       .  S
C689        C690   1.402       .  A
C689        C694   1.406       .  A
C690        C691   1.397       .  A
C690        H699   1.083       .  S
C691        C692   1.403       .  A
C691        H700   1.084       .  S
C692        C698   1.401       .  A
C692        C693   1.414       .  A
C693        C694   1.404       .  A
C693       C4375   1.405   1_554  A
C694       H4381   1.084       .  S
C695        C696   1.400       .  A
C695       C1429   1.405       .  A
C695        H702   1.084       .  S
C696        C697   1.402       .  A
C696        H703   1.083       .  S
C697       C1434   1.404       .  A
C698       C4377   1.404       .  A
C698        H704   1.085       .  S
H701       C1430   1.084       .  S
C705        C710   1.404       .  A
C705       C1442   1.402       .  A
C706        C707   1.395       .  A
C706       C4385   1.402       .  A
C706        H715   1.084       .  S
C707        C708   1.402       .  A
C707        H716   1.084       .  S
C708        C714   1.401       .  A
C708       C4389   1.414   1_554  A
C709        C711   1.403       .  A
C709        C710   1.405       .  A
C709       C1444   1.414       .  A
C710        H717   1.084       .  S
C711        C712   1.399       .  A
C711        H718   1.084       .  S
C712        C713   1.404       .  A
C712        H719   1.083       .  S
C713       C1450   1.404       .  A
C714       C4393   1.404   1_554  A
C714        H720   1.085       .  S
C721        C722   1.404       .  A
C721        C726   1.402       .  A
C722        C723   1.399       .  A
C722        H731   1.083       .  S
C723        C724   1.403       .  A
C723        H732   1.084       .  S
C724        C730   1.405       .  A
C724        C725   1.415       .  A
C725        C727   1.399       .  A
C725        C726   1.400       .  A
C726        H733   1.085       .  S
C727        C728   1.393       .  A
C727        H734   1.084       .  S
C728        C729   1.404       .  A
C728        H735   1.084       .  S
C729        C730   1.405       .  A
C730        H736   1.084       .  S
O737       Cu745   2.009       .  S
O737        C747   1.277       .  A
O738       Cu745   2.014       .  S
O738        C748   1.277       .  A
O739       Cu745   2.018       .  S
O739        C749   1.278       .  A
O740       Cu745   2.015       .  S
O740        C750   1.278       .  A
O741       Cu746   1.997       .  S
O742       Cu746   1.998       .  S
O743       Cu746   1.995       .  S
O744       Cu746   1.993       .  S
Cu745     Cu1482   2.373       .  S
C747       O1480   1.275       .  A
C747       C1409   1.465       .  S
C748       O1479   1.276       .  A
C748       C1465   1.472       .  S
C749       O1478   1.276       .  A
C749       C1433   1.470       .  S
C750       O1477   1.276       .  A
C750       C1449   1.474       .  S
O751       Cu759   2.013       .  S
O751        C761   1.277       .  A
O752       Cu759   1.999       .  S
O752        C762   1.276       .  A
O753       Cu759   2.020       .  S
O753        C763   1.277       .  A
O754       Cu759   2.004       .  S
O754        C764   1.277       .  A
O755       Cu760   2.022       .  S
O755        C764   1.278       .  A
O756       Cu760   2.005       .  S
O756        C763   1.277       .  A
O757       Cu760   2.011       .  S
O757        C762   1.277       .  A
O758       Cu760   1.995       .  S
O758        C761   1.275       .  A
Cu759      Cu760   2.372       .  S
C761       C1369   1.471       .  S
C762       C1457   1.471       .  S
C763       C1377   1.475       .  S
C764       C1401   1.476       .  S
O765       Cu773   2.031       .  S
O765        C775   1.279       .  A
O766       Cu773   2.029       .  S
O766       C1512   1.280       .  A
O767       Cu773   2.005       .  S
O767        C777   1.276       .  A
O768       Cu773   1.990       .  S
O768       C1514   1.275       .  A
O769       Cu774   2.025       .  S
O769        C778   1.279       .  A
O770       Cu774   2.008       .  S
O771       Cu774   1.993       .  S
O771        C776   1.274       .  A
O772       Cu774   1.995       .  S
Cu773     Cu1510   2.370       .  S
C775       O1508   1.276       .  A
C775       C1321   1.476       .  S
C776       C1353   1.474       .  S
C777       O1506   1.277       .  A
C777       C1441   1.469       .  S
C778       C1337   1.477       .  S
O779       Cu787   1.995       .  S
O779        C789   1.275       .  A
O780       Cu787   1.999       .  S
O780        C790   1.276       .  A
O781       Cu787   2.033       .  S
O781        C791   1.281       .  A
O782       Cu787   2.019       .  S
O782        C792   1.278       .  A
O783       Cu788   2.004       .  S
O783        C792   1.276       .  A
O784       Cu788   1.993       .  S
O784        C791   1.276       .  A
O785       Cu788   2.026       .  S
O785        C790   1.279       .  A
O786       Cu788   2.026       .  S
O786        C789   1.280       .  A
Cu787      Cu788   2.369       .  S
C789       C1345   1.477       .  S
C790       C1281   1.478       .  S
C791       C1393   1.481       .  S
C792       C1297   1.471       .  S
O793       Cu801   2.025       .  S
O793        C803   1.280       .  A
O794       Cu801   2.025       .  S
O794        C804   1.278       .  A
O795       Cu801   1.991       .  S
O795        C805   1.275       .  A
O796       Cu801   1.990       .  S
O796        C806   1.275       .  A
O797       Cu802   2.012       .  S
O797        C806   1.279       .  A
O798       Cu802   2.014       .  S
O798        C805   1.277       .  A
O799       Cu802   1.988       .  S
O799        C804   1.275       .  A
O800       Cu802   1.988       .  S
O800        C803   1.275       .  A
Cu801      Cu802   2.368       .  S
C803       C1265   1.476       .  S
C804       C1241   1.470       .  S
C805       C1249   1.466       .  S
C806       C1417   1.472       .  S
O807       Cu815   2.017       .  S
O807        C817   1.278       .  A
O808       Cu815   2.020       .  S
O808        C818   1.277       .  A
O809       Cu815   2.009       .  S
O809        C819   1.276       .  A
O810       Cu815   1.996       .  S
O810        C820   1.276       .  A
O811       Cu816   2.030       .  S
O811        C820   1.280       .  A
O812       Cu816   2.011       .  S
O812        C819   1.277       .  A
O813       Cu816   2.002       .  S
O813        C818   1.277       .  A
O814       Cu816   1.998       .  S
O814        C817   1.275       .  A
Cu815      Cu816   2.368       .  S
C817       C1273   1.473       .  S
C818       C1209   1.475       .  S
C819       C1217   1.470       .  S
C820       C1313   1.481       .  S
O821       Cu829   2.001       .  S
O821        C831   1.276       .  A
O822       Cu829   2.010       .  S
O822        C832   1.277       .  A
O823       Cu829   2.014       .  S
O823        C833   1.278       .  A
O824       Cu829   2.000       .  S
O824        C834   1.277       .  A
O825        C834   1.277       .  A
O826        C833   1.276       .  A
O827        C832   1.275       .  A
O828       Cu830   2.005       .  S
O828       C1567   1.276       .  A
Cu830      O1561   2.007       .  S
Cu830      O1562   1.990       .  S
Cu830      O1563   1.992       .  S
Cu830     Cu1565   2.371       .  S
C831       C1193   1.469       .  S
C832       C1169   1.466       .  S
C833       C1257   1.473       .  S
C834       C1361   1.473       .  S
O835       Cu843   2.003       .  S
O835        C845   1.277       .  A
O836       Cu843   2.004       .  S
O836        C846   1.276       .  A
O837       Cu843   2.007       .  S
O837        C847   1.277       .  A
O838       Cu843   2.010       .  S
O838        C848   1.277       .  A
O839       Cu844   1.994       .  S
O840       Cu844   1.992       .  S
O841       Cu844   2.020       .  S
O842       Cu844   2.018       .  S
Cu843     Cu1580   2.372       .  S
C845       O1578   1.279       .  A
C845       C1225   1.478       .  S
C846       O1577   1.278       .  A
C846       C1289   1.472       .  S
C847       O1576   1.275       .  A
C847       C1153   1.466       .  S
C848       O1575   1.275       .  A
C848       C1921   1.469       .  S
O849       Cu857   2.024       .  S
O849       C1595   1.279       .  A
O850       Cu857   2.022       .  S
O850       C1596   1.280       .  A
O851       Cu857   1.986       .  S
O851       C1597   1.274       .  A
O852       Cu857   1.977       .  S
O852       C1598   1.273       .  A
O853       Cu858   2.042       .  S
O853        C862   1.281       .  A
O854       Cu858   2.029       .  S
O854        C861   1.280       .  A
O855       Cu858   1.991       .  S
O855        C860   1.274       .  A
O856       Cu858   1.988       .  S
O856        C859   1.275       .  A
Cu857     Cu1594   2.369       .  S
C859       C1233   1.474       .  S
C860       C1129   1.476       .  S
C861       C1145   1.475       .  S
C862       C1113   1.473       .  S
O863       Cu871   1.993       .  S
O863       C1609   1.276       .  A
O864       Cu871   1.998       .  S
O864       C1610   1.275       .  A
O865       Cu871   2.006       .  S
O865       C1611   1.274       .  A
O866       Cu871   2.008       .  S
O866       C1612   1.278       .  A
O867       Cu872   2.008       .  S
O867        C876   1.276       .  A
O868       Cu872   2.009       .  S
O868        C875   1.277       .  A
O869       Cu872   2.010       .  S
O869        C874   1.277       .  A
O870       Cu872   2.011       .  S
O870        C873   1.277       .  A
Cu871     Cu1608   2.360       .  S
C874       C1089   1.466       .  S
C876       C1137   1.475       .  S
O877       Cu885   1.989       .  S
O877        C887   1.275       .  A
O878       Cu885   1.998       .  S
O878        C888   1.276       .  A
O879       Cu885   2.031       .  S
O879        C889   1.280       .  A
O880       Cu885   2.028       .  S
O880        C890   1.279       .  A
O881       Cu886   1.985       .  S
O881        C890   1.274       .  A
O882       Cu886   1.990       .  S
O882        C889   1.275       .  A
O883       Cu886   2.010       .  S
O883        C888   1.277       .  A
O884       Cu886   2.009       .  S
O884        C887   1.277       .  A
Cu885      Cu886   2.366       .  S
C887       C1049   1.467       .  S
C888       C1065   1.471       .  S
C889       C1201   1.477       .  S
C890       C1121   1.471       .  S
O891       Cu899   2.021       .  S
O891        C901   1.279       .  A
O892       Cu899   2.007       .  S
O892        C902   1.277       .  A
O893       Cu899   2.002       .  S
O893        C903   1.276       .  A
O894       Cu899   1.995       .  S
O894        C904   1.276       .  A
O895       Cu900   2.003       .  S
O895       C1640   1.277       .  A
O896       Cu900   2.006       .  S
O896       C1639   1.277       .  A
O897       Cu900   2.000       .  S
O897       C1638   1.276       .  A
O898       Cu900   1.987       .  S
O898       C1637   1.275       .  A
Cu900     Cu1635   2.372       .  S
C901       C1025   1.472       .  S
C903       C1097   1.472       .  S
C904       C1161   1.468       .  S
O905       Cu913   2.006       .  S
O905        C915   1.275       .  A
O906       Cu913   2.012       .  S
O906        C916   1.278       .  A
O907       Cu913   2.016       .  S
O907        C917   1.278       .  A
O908       Cu913   2.009       .  S
O908        C918   1.276       .  A
O909       Cu914   2.017       .  S
O909        C918   1.278       .  A
O910       Cu914   2.001       .  S
O910        C917   1.276       .  A
O911       Cu914   1.998       .  S
O911        C916   1.275       .  A
O912       Cu914   2.014       .  S
O912        C915   1.278       .  A
Cu913      Cu914   2.373       .  S
C915       C1105   1.471       .  S
C916       C1001   1.467       .  S
C917       C1425   1.471       .  S
C918       C1009   1.474       .  S
O919       Cu927   2.011       .  S
O919        C929   1.277       .  A
O920       Cu927   2.014       .  S
O921       Cu927   1.985       .  S
O921        C931   1.275       .  A
O922       Cu927   2.006       .  S
O923       Cu928   2.003       .  S
O923        C932   1.276       .  A
O924       Cu928   2.013       .  S
O924       C1667   1.277       .  A
O925       Cu928   2.010       .  S
O925        C930   1.277       .  A
O926       Cu928   2.007       .  S
O926       C1665   1.277       .  A
Cu928     Cu1663   2.371       .  S
C929       C1329   1.476       .  S
C930       O1656   1.278       .  A
C930       C1017   1.476       .  S
C931       C1041   1.469       .  S
C932       O1658   1.276       .  A
C932        C985   1.469       .  S
O933       Cu941   2.044       .  S
O933        C943   1.282       .  A
O934       Cu941   2.045       .  S
O934        C944   1.282       .  A
O935       Cu941   1.991       .  S
O935        C945   1.274       .  A
O936       Cu941   1.990       .  S
O936        C946   1.275       .  A
O937       Cu942   2.035       .  S
O937        C946   1.280       .  A
O938       Cu942   2.025       .  S
O938        C945   1.280       .  A
O939       Cu942   1.963       .  S
O939        C944   1.272       .  A
O940       Cu942   1.964       .  S
O940        C943   1.272       .  A
Cu941      Cu942   2.367       .  S
C943        C993   1.477       .  S
C944       C1081   1.475       .  S
C945        C969   1.473       .  S
C946       C1385   1.478       .  S
O947       Cu955   2.021       .  S
O948       Cu955   2.007       .  S
O949       Cu955   1.998       .  S
O950       Cu955   2.004       .  S
O951       Cu956   2.020       .  S
O951        C960   1.278       .  A
O952       Cu956   2.018       .  S
O952        C959   1.278       .  A
O953       Cu956   2.002       .  S
O953        C958   1.276       .  A
O954       Cu956   1.989       .  S
O954        C957   1.275       .  A
Cu956     Cu1691   2.370       .  S
C957       O1683   1.279       .  A
C957        C977   1.475       .  S
C958       O1684   1.276       .  A
C958       C1033   1.466       .  S
C959       O1685   1.275       .  A
C959       C1697   1.472       .  S
C960       O1686   1.276       .  A
C960       C1305   1.474       .  S
C961        C962   1.404       .  A
C962        C963   1.396       .  A
C962        H971   1.083       .  S
C963        C964   1.400       .  A
C963        H972   1.084       .  S
C964        C970   1.404       .  A
C965       C1700   1.416       .  A
C965        C967   1.401       .  A
C965        C966   1.405       .  A
C966       C1697   1.403       .  A
C966        H973   1.084       .  S
C967        C968   1.397       .  A
C967        H974   1.084       .  S
C968       C1705   1.405       .  A
C968        H975   1.083       .  S
C969        C970   1.402       .  A
C970        H976   1.085       .  S
C977        C978   1.406       .  A
C977        C982   1.405       .  A
C978        C979   1.394       .  A
C978        H987   1.083       .  S
C979        C980   1.400       .  A
C979        H988   1.084       .  S
C980        C986   1.401       .  A
C980        C981   1.415       .  A
C981        C983   1.403       .  A
C981        C982   1.404       .  A
C982        H989   1.084       .  S
C983        C984   1.398       .  A
C983        H990   1.084       .  S
C984        C985   1.403       .  A
C984        H991   1.083       .  S
C985        C986   1.401       .  A
C986        H992   1.085       .  S
C993        C994   1.408       .  A
C993        C998   1.405       .  A
C994        C995   1.389       .  A
C994       H1003   1.084       .  S
C995        C996   1.395       .  A
C995       H1004   1.084       .  S
C996       C1002   1.399       .  A
C996        C997   1.416       .  A
C997        C999   1.403       .  A
C997        C998   1.409       .  A
C998       H1005   1.084       .  S
C999       C1000   1.400       .  A
C999       H1006   1.083       .  S
C1000      C1001   1.404       .  A
C1000      H1007   1.083       .  S
C1001      C1002   1.397       .  A
C1002      H1008   1.085       .  S
C1009      C1010   1.403       .  A
C1009      C1014   1.404       .  A
C1010      C1011   1.398       .  A
C1010      H1019   1.083       .  S
C1011      C1012   1.403       .  A
C1011      H1020   1.084       .  S
C1012      C1018   1.406       .  A
C1012      C1013   1.415       .  A
C1013      C1751   1.402       .  A
C1013      C1014   1.405       .  A
C1014      H1757   1.084       .  S
C1015      C1016   1.398       .  A
C1015      H1022   1.084       .  S
C1016      H1023   1.083       .  S
C1017      C1752   1.404       .  A
C1017      C1018   1.405       .  A
C1018      H1024   1.084       .  S
C1025      C1030   1.405       .  A
C1026      C1761   1.404       .  A
C1026      C1027   1.392       .  A
C1026      H1035   1.083       .  S
C1027      C1028   1.399       .  A
C1027      H1036   1.084       .  S
C1028      C1034   1.399   1_545  A
C1028      C1765   1.415       .  A
C1029      C1031   1.404       .  A
C1029      C1030   1.406       .  A
C1030      H1037   1.084       .  S
C1031      C1032   1.399   1_545  A
C1031      H1038   1.084       .  S
C1032      H1039   1.083       .  S
C1033      C1768   1.403       .  A
C1033      C1034   1.399       .  A
C1034      H1040   1.085       .  S
C1041      C1046   1.401       .  A
C1042      C1777   1.404       .  A
C1042      C1043   1.399       .  A
C1042      H1051   1.083       .  S
C1043      C1780   1.404       .  A
C1043      H1052   1.084       .  S
C1044      C1045   1.414       .  A
C1045      C1047   1.399       .  A
C1045      C1046   1.396       .  A
C1046      H1053   1.085       .  S
C1047      C1048   1.391       .  A
C1047      H1054   1.084       .  S
C1048      C1049   1.403       .  A
C1048      H1055   1.084       .  S
C1050      C1780   1.404       .  A
C1050      C1785   1.404       .  A
C1050      H1056   1.084       .  S
C1057      C1638   1.468       .  S
C1057      C1058   1.403       .  A
C1057      C1062   1.402       .  A
C1058      C1059   1.396       .  A
C1058      H1803   1.084       .  S
C1059      C1060   1.402       .  A
C1059      H1068   1.084       .  S
C1060      C1066   1.402       .  A
C1060      C1061   1.415       .  A
C1061      C1063   1.401       .  A
C1061      C1062   1.402       .  A
C1062      H1069   1.085       .  S
C1063      C1064   1.396       .  A
C1063      H1070   1.084       .  S
C1064      C1065   1.403       .  A
C1064      H1071   1.083       .  S
C1065      C1066   1.404       .  A
C1066      H1072   1.085       .  S
C1073      C1611   1.471       .  S
C1073      C1074   1.405       .  A
C1073      C1814   1.398       .  A
C1074      C1075   1.400       .  A
C1074      H1083   1.082       .  S
C1075      C1076   1.403       .  A
C1075      H1084   1.084       .  S
C1076      C1082   1.409   1_545  A
C1076      C1077   1.417       .  A
C1077      C1815   1.396       .  A
C1077      C1814   1.399       .  A
C1078      H1085   1.085       .  S
C1079      H1086   1.084       .  S
C1080      C1815   1.389   1_565  A
C1080      C1081   1.407       .  A
C1080      H1823   1.084       .  S
C1081      C1082   1.405       .  A
C1082      H1088   1.084       .  S
C1089      C1090   1.402       .  A
C1089      C1094   1.402       .  A
C1090      C1091   1.397       .  A
C1090      H1099   1.083       .  S
C1091      C1092   1.403       .  A
C1091      H1100   1.084       .  S
C1092      C1098   1.402       .  A
C1092      C1093   1.414       .  A
C1093      C1094   1.402       .  A
C1095      C1829   1.401       .  A
C1095      C1096   1.396       .  A
C1095      H1102   1.084       .  S
C1096      C1833   1.404       .  A
C1096      H1103   1.083       .  S
C1097      C1098   1.404       .  A
C1098      H1104   1.084       .  S
H1101      C1830   1.085       .  S
C1105      C1106   1.404       .  A
C1105      C1110   1.400       .  A
C1106      C1107   1.402       .  A
C1106      H1115   1.083       .  S
C1107      C1108   1.405       .  A
C1107      H1116   1.083       .  S
C1108      C1114   1.410       .  A
C1108      C1109   1.416       .  A
C1109      C1111   1.398       .  A
C1109      C1110   1.400       .  A
C1110      H1117   1.085       .  S
C1111      C1112   1.391       .  A
C1111      H1118   1.084       .  S
C1112      C1113   1.404       .  A
C1113      C1114   1.406       .  A
C1114      H1120   1.084       .  S
H1119      C1848   1.084       .  S
C1121      C1122   1.404       .  A
C1121      C1126   1.403       .  A
C1122      C1123   1.393       .  A
C1122      H1131   1.084       .  S
C1123      C1124   1.399       .  A
C1124      C1130   1.402       .  A
C1124      C1125   1.416       .  A
C1125      C1127   1.401       .  A
C1125      C1126   1.406       .  A
C1126      H1133   1.084       .  S
C1127      C1128   1.397       .  A
C1127      H1134   1.084       .  S
C1128      C1129   1.406       .  A
C1128      H1135   1.083       .  S
C1129      C1130   1.402       .  A
H1132      C1859   1.084       .  S
H1136      C1866   1.084       .  S
C1137      C1138   1.405       .  A
C1138      C1139   1.400       .  A
C1138      H1147   1.083       .  S
C1139      C1140   1.403       .  A
C1139      H1148   1.084       .  S
C1140      C1146   1.407       .  A
C1141      C1876   1.415       .  A
C1141      C1143   1.399       .  A
C1141      C1142   1.400       .  A
C1142      C1873   1.402       .  A
C1142      H1149   1.085       .  S
C1143      C1144   1.393       .  A
C1143      H1150   1.084       .  S
C1144      C1881   1.405       .  A
C1144      H1151   1.083       .  S
C1145      C1146   1.405       .  A
C1146      H1152   1.084       .  S
C1153      C1154   1.402       .  A
C1153      C1158   1.402       .  A
C1154      C1155   1.396       .  A
C1154      H1163   1.083       .  S
C1155      C1892   1.403       .  A
C1155      H1164   1.084       .  S
C1156      C1162   1.401   1_455  A
C1156      C1157   1.414       .  A
C1157      C1159   1.401       .  A
C1158      C1893   1.399       .  A
C1158      H1901   1.085       .  S
C1159      C1160   1.394   1_455  A
C1159      H1166   1.084       .  S
C1160      C1161   1.403       .  A
C1160      H1167   1.083       .  S
C1161      C1162   1.403       .  A
C1162      H1168   1.084       .  S
C1169      C1170   1.402       .  A
C1169      C1174   1.404       .  A
C1170      C1171   1.392       .  A
C1170      H1179   1.084       .  S
C1171      C1172   1.399       .  A
C1171      H1180   1.084       .  S
C1172      C1178   1.397       .  A
C1172      C1173   1.414       .  A
C1173      C1911   1.403       .  A
C1173      C1174   1.404       .  A
C1174      H1181   1.084       .  S
C1175      C1176   1.399       .  A
C1175      H1182   1.084       .  S
C1176      H1183   1.083       .  S
C1177      C1609   1.474       .  S
C1177      C1912   1.405       .  A
C1177      C1178   1.403       .  A
C1178      H1184   1.085       .  S
C1185      C1186   1.404       .  A
C1186      C1187   1.394       .  A
C1186      H1195   1.083       .  S
C1187      C1188   1.400       .  A
C1187      H1196   1.084       .  S
C1188      C1194   1.400       .  A
C1189      C1924   1.414       .  A
C1189      C1191   1.402       .  A
C1189      C1190   1.403       .  A
C1190      C1921   1.403       .  A
C1190      H1197   1.084       .  S
C1191      C1192   1.397       .  A
C1191      H1198   1.084       .  S
C1192      C1929   1.403       .  A
C1192      H1199   1.083       .  S
C1193      C1194   1.402       .  A
C1194      H1200   1.085       .  S
C1201      C1202   1.405       .  A
C1201      C1206   1.403       .  A
C1202      C1203   1.403   1_655  A
C1202      H1211   1.083       .  S
C1204      C1939   1.406       .  A
C1204      C1210   1.409       .  A
C1204      C1941   1.414       .  A
C1205      C1206   1.399   1_455  A
C1206      H1213   1.085       .  S
C1207      C1941   1.399       .  A
C1207      C1208   1.393       .  A
C1207      H1950   1.084       .  S
C1208      C1209   1.403       .  A
C1208      H1215   1.084       .  S
C1209      C1210   1.408       .  A
C1210      H1216   1.084       .  S
H1212      C1939   1.083       .  S
C1217      C1218   1.402       .  A
C1217      C1222   1.404       .  A
C1218      C1219   1.396       .  A
C1218      H1227   1.084       .  S
C1219      C1220   1.402       .  A
C1219      H1228   1.084       .  S
C1220      C1226   1.403       .  A
C1220      C1221   1.414       .  A
C1221      C1959   1.403       .  A
C1221      C1222   1.406       .  A
C1222      H1229   1.084       .  S
C1223      C1224   1.399       .  A
C1223      H1230   1.084       .  S
C1224      H1231   1.083       .  S
C1225      C1960   1.405       .  A
C1225      C1226   1.405       .  A
C1226      H1232   1.084       .  S
C1233      C1234   1.404       .  A
C1233      C1238   1.407       .  A
C1234      C1235   1.390       .  A
C1234      H1243   1.083       .  S
C1235      C1236   1.398       .  A
C1235      H1244   1.084       .  S
C1236      C1242   1.397       .  A
C1236      C1237   1.414       .  A
C1237      C1239   1.406       .  A
C1237      C1238   1.408       .  A
C1238      H1245   1.084       .  S
C1239      C1240   1.403       .  A
C1239      H1246   1.084       .  S
C1240      C1241   1.403       .  A
C1240      H1247   1.083       .  S
C1241      C1242   1.400       .  A
C1242      H1248   1.085       .  S
C1249      C1250   1.402       .  A
C1249      C1254   1.400       .  A
C1250      C1251   1.399       .  A
C1250      H1259   1.083       .  S
C1251      C1252   1.404       .  A
C1251      H1260   1.084       .  S
C1252      C1258   1.404       .  A
C1252      C1253   1.414       .  A
C1253      C1254   1.398       .  A
C1255      C1989   1.399       .  A
C1255      C1256   1.392       .  A
C1255      H1262   1.084       .  S
C1256      C1993   1.405       .  A
C1256      H1263   1.083       .  S
C1257      C1258   1.406       .  A
C1258      H1264   1.084       .  S
H1261      C1990   1.085       .  S
C1265      C1266   1.406       .  A
C1265      C1270   1.404       .  A
C1266      C1267   1.395       .  A
C1266      H1275   1.083       .  S
C1267      C1268   1.399       .  A
C1267      H2012   1.084       .  S
C1268      C1274   1.403       .  A
C1268      C1269   1.415       .  A
C1269      C1271   1.401       .  A
C1269      C1270   1.405       .  A
C1271      C1272   1.397       .  A
C1272      C1273   1.405       .  A
C1273      C1274   1.402       .  A
C1274      H1280   1.085       .  S
H1277      C2006   1.084       .  S
H1278      C2007   1.084       .  S
H1279      C2008   1.083       .  S
C1281      C1282   1.405       .  A
C1281      C1286   1.407       .  A
C1282      C1283   1.395   1_565  A
C1282      H1291   1.083       .  S
C1283      C1284   1.400       .  A
C1283      H1292   1.084       .  S
C1284      C1290   1.403       .  A
C1284      C1285   1.415       .  A
C1285      C1287   1.404       .  A
C1285      C1286   1.408   1_545  A
C1286      H1293   1.084       .  S
C1287      C1288   1.401       .  A
C1287      H1294   1.084       .  S
C1288      C1289   1.403       .  A
C1288      H1295   1.083       .  S
C1289      C1290   1.402       .  A
C1290      H1296   1.085       .  S
C1297      C1298   1.403       .  A
C1297      C1302   1.402       .  A
C1298      C1299   1.401       .  A
C1299      C1300   1.404       .  A
C1300      C1306   1.407   1_455  A
C1300      C1301   1.415       .  A
C1301      C2039   1.401       .  A
C1301      C1302   1.402       .  A
C1302      H1309   1.085       .  S
C1303      H1310   1.084       .  S
C1304      C2039   1.395   1_655  A
C1304      C1305   1.403       .  A
C1304      H2047   1.084       .  S
C1305      C1306   1.406       .  A
C1306      H1312   1.084       .  S
H1307      C2034   1.083       .  S
H1308      C2035   1.084       .  S
C1313      C1314   1.405       .  A
C1313      C1318   1.405       .  A
C1314      C1315   1.403       .  A
C1314      H1323   1.083       .  S
C1315      C1316   1.405       .  A
C1315      H1324   1.084       .  S
C1316      C1322   1.410       .  A
C1316      C1317   1.414       .  A
C1317      C2055   1.400       .  A
C1317      C1318   1.401       .  A
C1318      H2061   1.085       .  S
C1319      C1320   1.393       .  A
C1319      H1326   1.084       .  S
C1320      H1327   1.084       .  S
C1321      C2056   1.404       .  A
C1321      C1322   1.408       .  A
C1322      H1328   1.084       .  S
C1329      C1330   1.405       .  A
C1330      C1331   1.399   1_655  A
C1330      H1339   1.083       .  S
C1331      C1332   1.403       .  A
C1331      H1340   1.084       .  S
C1332      C1338   1.407       .  A
C1333      C2068   1.414       .  A
C1333      C1335   1.399       .  A
C1333      C1334   1.402   1_455  A
C1334      C2065   1.403       .  A
C1334      H1341   1.085       .  S
C1335      C1336   1.393       .  A
C1335      H1342   1.084       .  S
C1336      C2073   1.406       .  A
C1336      H1343   1.083       .  S
C1337      C1338   1.406       .  A
C1338      H1344   1.084       .  S
C1345      C1346   1.406       .  A
C1345      C1350   1.404       .  A
C1346      C1347   1.397       .  A
C1346      H1355   1.083       .  S
C1347      C1348   1.401       .  A
C1347      H1356   1.084       .  S
C1348      C1354   1.406       .  A
C1348      C1349   1.416       .  A
C1349      C1351   1.401       .  A
C1349      C1350   1.406       .  A
C1350      H1357   1.084       .  S
C1351      C1352   1.397       .  A
C1351      H1358   1.084       .  S
C1352      C1353   1.405       .  A
C1352      H1359   1.083       .  S
C1353      C1354   1.403       .  A
C1354      H1360   1.084       .  S
C1361      C1362   1.404       .  A
C1361      C1366   1.405       .  A
C1362      C1363   1.396       .  A
C1362      H1371   1.083       .  S
C1363      C1364   1.402       .  A
C1363      H1372   1.084       .  S
C1364      C1370   1.401   1_545  A
C1364      C1365   1.414       .  A
C1365      C1367   1.403       .  A
C1365      C1366   1.402       .  A
C1366      H1373   1.084       .  S
C1367      C1368   1.397   1_545  A
C1367      H1374   1.084       .  S
C1368      C1369   1.403       .  A
C1368      H1375   1.083       .  S
C1369      C1370   1.404       .  A
C1370      H1376   1.085       .  S
C1377      C1378   1.403       .  A
C1377      C1382   1.408       .  A
C1378      C1379   1.394       .  A
C1378      H1387   1.084       .  S
C1379      C1380   1.401       .  A
C1379      H1388   1.084       .  S
C1380      C1386   1.401       .  A
C1380      C1381   1.414       .  A
C1381      C1383   1.406       .  A
C1381      C1382   1.409       .  A
C1382      H1389   1.084       .  S
C1383      C1384   1.403       .  A
C1383      H1390   1.084       .  S
C1384      C1385   1.404       .  A
C1384      H1391   1.083       .  S
C1385      C1386   1.405       .  A
C1386      H1392   1.085       .  S
C1393      C1394   1.405       .  A
C1393      C1398   1.406       .  A
C1394      C1395   1.402       .  A
C1395      C1396   1.405       .  A
C1396      C1402   1.409       .  A
C1396      C1397   1.413       .  A
C1397      C1399   1.401       .  A
C1397      C1398   1.402       .  A
C1398      H1405   1.085       .  S
C1399      C1400   1.395       .  A
C1399      H1406   1.084       .  S
C1400      C1401   1.403       .  A
C1400      H1407   1.084       .  S
C1401      C1402   1.407       .  A
C1402      H1408   1.084       .  S
H1403      C2130   1.083       .  S
H1404      C2131   1.084       .  S
C1409      C2146   1.402       .  A
C1409      C1414   1.401       .  A
C1410      C1411   1.395       .  A
C1410      H1419   1.083       .  S
C1411      C1412   1.401       .  A
C1411      H1420   1.084       .  S
C1412      C1418   1.401       .  A
C1412      C1413   1.415       .  A
C1414      C2149   1.401       .  A
C1414      H1421   1.085       .  S
C1415      C2149   1.400       .  A
C1415      C2152   1.395       .  A
C1415      H1422   1.084       .  S
C1416      C1417   1.405       .  A
C1417      C1418   1.403       .  A
C1418      H1424   1.084       .  S
H1423      C2152   1.083       .  S
C1425      C1426   1.402       .  A
C1425      C1430   1.406       .  A
C1426      C1427   1.397       .  A
C1426      H1435   1.083       .  S
C1427      C1428   1.403       .  A
C1427      H1436   1.084       .  S
C1428      C1434   1.401       .  A
C1428      C1429   1.414       .  A
C1429      C1430   1.404       .  A
C1431      C2165   1.405       .  A
C1431      C1432   1.400       .  A
C1431      H1438   1.084       .  S
C1432      C1433   1.402       .  A
C1432      H1439   1.083       .  S
C1433      C2170   1.404       .  A
C1434      H1440   1.085       .  S
H1437      C2166   1.084       .  S
C1441      C2178   1.402       .  A
C1441      C1446   1.404       .  A
C1442      C1443   1.395       .  A
C1442      H1451   1.084       .  S
C1443      C1444   1.402       .  A
C1443      H1452   1.084       .  S
C1444      C1450   1.401       .  A
C1445      C2180   1.414       .  A
C1445      C1447   1.403       .  A
C1445      C1446   1.404       .  A
C1446      H1453   1.084       .  S
C1447      C1448   1.399       .  A
C1447      H1454   1.084       .  S
C1448      C1449   1.404       .  A
C1448      H1455   1.083       .  S
C1449      C2186   1.404       .  A
C1450      H1456   1.085       .  S
C1457      C1458   1.404       .  A
C1457      C1462   1.402       .  A
C1458      C1459   1.399       .  A
C1458      H1467   1.083       .  S
C1459      C1460   1.403       .  A
C1459      H1468   1.084       .  S
C1460      C1466   1.405       .  A
C1460      C1461   1.415       .  A
C1461      C1463   1.399       .  A
C1461      C1462   1.400       .  A
C1462      H1469   1.085       .  S
C1463      C1464   1.393       .  A
C1463      H1470   1.084       .  S
C1464      C1465   1.404       .  A
C1464      H1471   1.083       .  S
C1465      C1466   1.405       .  A
C1466      H1472   1.084       .  S
O1473     Cu1481   2.009       .  S
O1473      C1483   1.277       .  A
O1474     Cu1481   2.014       .  S
O1474      C1484   1.277       .  A
O1475     Cu1481   2.018       .  S
O1475      C1485   1.278       .  A
O1476     Cu1481   2.015       .  S
O1476      C1486   1.278       .  A
O1477     Cu1482   1.997       .  S
O1478     Cu1482   1.998       .  S
O1479     Cu1482   1.995       .  S
O1480     Cu1482   1.993       .  S
Cu1481    Cu2218   2.373       .  S
C1483      O2216   1.275       .  A
C1483      C2145   1.465       .  S
C1484      O2215   1.276       .  A
C1484      C2201   1.472       .  S
C1485      O2214   1.276       .  A
C1485      C2169   1.470       .  S
C1486      O2213   1.276       .  A
C1486      C2185   1.474       .  S
O1487     Cu1495   2.013       .  S
O1487      C1497   1.277       .  A
O1488     Cu1495   1.999       .  S
O1488      C1498   1.276       .  A
O1489     Cu1495   2.020       .  S
O1489      C1499   1.277       .  A
O1490     Cu1495   2.004       .  S
O1490      C1500   1.277       .  A
O1491     Cu1496   2.022       .  S
O1491      C1500   1.278       .  A
O1492     Cu1496   2.005       .  S
O1492      C1499   1.277       .  A
O1493     Cu1496   2.011       .  S
O1493      C1498   1.277       .  A
O1494     Cu1496   1.995       .  S
O1494      C1497   1.275       .  A
Cu1495    Cu1496   2.372       .  S
C1497      C2105   1.471       .  S
C1498      C2193   1.471       .  S
C1499      C2113   1.475       .  S
C1500      C2137   1.476       .  S
O1501     Cu1509   2.031       .  S
O1501      C1511   1.279       .  A
O1502     Cu1509   2.029       .  S
O1502      C2248   1.280       .  A
O1503     Cu1509   2.005       .  S
O1503      C1513   1.276       .  A
O1504     Cu1509   1.990       .  S
O1504      C2250   1.275       .  A
O1505     Cu1510   2.025       .  S
O1505      C1514   1.279       .  A
O1506     Cu1510   2.008       .  S
O1507     Cu1510   1.993       .  S
O1507      C1512   1.274       .  A
O1508     Cu1510   1.995       .  S
Cu1509    Cu2246   2.370       .  S
C1511      O2244   1.276       .  A
C1511      C2057   1.476       .  S
C1512      C2089   1.474       .  S
C1513      O2242   1.277       .  A
C1513      C2177   1.469       .  S
C1514      C2073   1.477       .  S
O1515     Cu1523   1.995       .  S
O1515      C1525   1.275       .  A
O1516     Cu1523   1.999       .  S
O1516      C1526   1.276       .  A
O1517     Cu1523   2.033       .  S
O1517      C1527   1.281       .  A
O1518     Cu1523   2.019       .  S
O1518      C1528   1.278       .  A
O1519     Cu1524   2.004       .  S
O1519      C1528   1.276       .  A
O1520     Cu1524   1.993       .  S
O1520      C1527   1.276       .  A
O1521     Cu1524   2.026       .  S
O1521      C1526   1.279       .  A
O1522     Cu1524   2.026       .  S
O1522      C1525   1.280       .  A
Cu1523    Cu1524   2.369       .  S
C1525      C2081   1.477       .  S
C1526      C2017   1.478       .  S
C1527      C2129   1.481       .  S
C1528      C2033   1.471       .  S
O1529     Cu1537   2.025       .  S
O1529      C1539   1.280       .  A
O1530     Cu1537   2.025       .  S
O1530      C1540   1.278       .  A
O1531     Cu1537   1.991       .  S
O1531      C1541   1.275       .  A
O1532     Cu1537   1.990       .  S
O1532      C1542   1.275       .  A
O1533     Cu1538   2.012       .  S
O1533      C1542   1.279       .  A
O1534     Cu1538   2.014       .  S
O1534      C1541   1.277       .  A
O1535     Cu1538   1.989       .  S
O1535      C1540   1.275       .  A
O1536     Cu1538   1.988       .  S
O1536      C1539   1.275       .  A
Cu1537    Cu1538   2.368       .  S
C1539      C2001   1.476       .  S
C1540      C1977   1.470       .  S
C1541      C1985   1.466       .  S
C1542      C2153   1.472       .  S
O1543     Cu1551   2.017       .  S
O1543      C1553   1.278       .  A
O1544     Cu1551   2.020       .  S
O1544      C1554   1.277       .  A
O1545     Cu1551   2.009       .  S
O1545      C1555   1.276       .  A
O1546     Cu1551   1.996       .  S
O1546      C1556   1.276       .  A
O1547     Cu1552   2.030       .  S
O1547      C1556   1.280       .  A
O1548     Cu1552   2.011       .  S
O1548      C1555   1.277       .  A
O1549     Cu1552   2.002       .  S
O1549      C1554   1.277       .  A
O1550     Cu1552   1.998       .  S
O1550      C1553   1.275       .  A
Cu1551    Cu1552   2.368       .  S
C1553      C2009   1.473       .  S
C1554      C1945   1.475       .  S
C1555      C1953   1.470       .  S
C1556      C2049   1.481       .  S
O1557     Cu1565   2.001       .  S
O1557      C1567   1.276       .  A
O1558     Cu1565   2.010       .  S
O1558      C1568   1.277       .  A
O1559     Cu1565   2.014       .  S
O1559      C1569   1.278       .  A
O1560     Cu1565   2.000       .  S
O1560      C1570   1.277       .  A
O1561      C1570   1.277       .  A
O1562      C1569   1.276       .  A
O1563      C1568   1.275       .  A
O1564     Cu1566   2.005       .  S
O1564      C2303   1.276       .  A
Cu1566     O2297   2.007       .  S
Cu1566     O2298   1.990       .  S
Cu1566     O2299   1.992       .  S
Cu1566    Cu2301   2.371       .  S
C1567      C1929   1.469       .  S
C1568      C1905   1.466       .  S
C1569      C1993   1.473       .  S
C1570      C2097   1.473       .  S
O1571     Cu1579   2.003       .  S
O1571      C1581   1.277       .  A
O1572     Cu1579   2.004       .  S
O1572      C1582   1.276       .  A
O1573     Cu1579   2.007       .  S
O1573      C1583   1.277       .  A
O1574     Cu1579   2.010       .  S
O1574      C1584   1.277       .  A
O1575     Cu1580   1.994       .  S
O1576     Cu1580   1.992       .  S
O1577     Cu1580   2.020       .  S
O1578     Cu1580   2.018       .  S
Cu1579    Cu2316   2.372       .  S
C1581      O2314   1.279       .  A
C1581      C1961   1.478       .  S
C1582      O2313   1.278       .  A
C1582      C2025   1.472       .  S
C1583      O2312   1.275       .  A
C1583      C1889   1.466       .  S
C1584      O2311   1.275       .  A
C1584      C2657   1.469       .  S
O1585     Cu1593   2.024       .  S
O1585      C2331   1.279       .  A
O1586     Cu1593   2.022       .  S
O1586      C2332   1.280       .  A
O1587     Cu1593   1.986       .  S
O1587      C2333   1.274       .  A
O1588     Cu1593   1.977       .  S
O1588      C2334   1.273       .  A
O1589     Cu1594   2.042       .  S
O1589      C1598   1.281       .  A
O1590     Cu1594   2.029       .  S
O1590      C1597   1.280       .  A
O1591     Cu1594   1.991       .  S
O1591      C1596   1.274       .  A
O1592     Cu1594   1.988       .  S
O1592      C1595   1.275       .  A
Cu1593    Cu2330   2.369       .  S
C1595      C1969   1.474       .  S
C1596      C1865   1.476       .  S
C1597      C1881   1.475       .  S
C1598      C1849   1.473       .  S
O1599     Cu1607   1.993       .  S
O1599      C2345   1.276       .  A
O1600     Cu1607   1.998       .  S
O1600      C2346   1.275       .  A
O1601     Cu1607   2.006       .  S
O1601      C2347   1.274       .  A
O1602     Cu1607   2.008       .  S
O1602      C2348   1.278       .  A
O1603     Cu1608   2.008       .  S
O1603      C1612   1.276       .  A
O1604     Cu1608   2.009       .  S
O1604      C1611   1.277       .  A
O1605     Cu1608   2.010       .  S
O1605      C1610   1.277       .  A
O1606     Cu1608   2.011       .  S
O1606      C1609   1.277       .  A
Cu1607    Cu2344   2.360       .  S
C1610      C1825   1.466       .  S
C1612      C1873   1.475       .  S
O1613     Cu1621   1.989       .  S
O1613      C1623   1.275       .  A
O1614     Cu1621   1.998       .  S
O1614      C1624   1.276       .  A
O1615     Cu1621   2.032       .  S
O1615      C1625   1.280       .  A
O1616     Cu1621   2.028       .  S
O1616      C1626   1.279       .  A
O1617     Cu1622   1.985       .  S
O1617      C1626   1.274       .  A
O1618     Cu1622   1.990       .  S
O1618      C1625   1.275       .  A
O1619     Cu1622   2.010       .  S
O1619      C1624   1.277       .  A
O1620     Cu1622   2.009       .  S
O1620      C1623   1.277       .  A
Cu1621    Cu1622   2.366       .  S
C1623      C1785   1.467       .  S
C1624      C1801   1.471       .  S
C1625      C1937   1.477       .  S
C1626      C1857   1.471       .  S
O1627     Cu1635   2.021       .  S
O1627      C1637   1.279       .  A
O1628     Cu1635   2.007       .  S
O1628      C1638   1.277       .  A
O1629     Cu1635   2.002       .  S
O1629      C1639   1.276       .  A
O1630     Cu1635   1.996       .  S
O1630      C1640   1.276       .  A
O1631     Cu1636   2.003       .  S
O1631      C2376   1.277       .  A
O1632     Cu1636   2.006       .  S
O1632      C2375   1.277       .  A
O1633     Cu1636   2.000       .  S
O1633      C2374   1.276       .  A
O1634     Cu1636   1.987       .  S
O1634      C2373   1.275       .  A
Cu1636    Cu2371   2.372       .  S
C1637      C1761   1.472       .  S
C1639      C1833   1.472       .  S
C1640      C1897   1.468       .  S
O1641     Cu1649   2.006       .  S
O1641      C1651   1.275       .  A
O1642     Cu1649   2.012       .  S
O1642      C1652   1.278       .  A
O1643     Cu1649   2.016       .  S
O1643      C1653   1.278       .  A
O1644     Cu1649   2.009       .  S
O1644      C1654   1.276       .  A
O1645     Cu1650   2.017       .  S
O1645      C1654   1.278       .  A
O1646     Cu1650   2.001       .  S
O1646      C1653   1.276       .  A
O1647     Cu1650   1.998       .  S
O1647      C1652   1.275       .  A
O1648     Cu1650   2.014       .  S
O1648      C1651   1.278       .  A
Cu1649    Cu1650   2.373       .  S
C1651      C1841   1.471       .  S
C1652      C1737   1.467       .  S
C1653      C2161   1.471       .  S
C1654      C1745   1.474       .  S
O1655     Cu1663   2.011       .  S
O1655      C1665   1.277       .  A
O1656     Cu1663   2.014       .  S
O1657     Cu1663   1.985       .  S
O1657      C1667   1.275       .  A
O1658     Cu1663   2.006       .  S
O1659     Cu1664   2.003       .  S
O1659      C1668   1.276       .  A
O1660     Cu1664   2.013       .  S
O1660      C2403   1.277       .  A
O1661     Cu1664   2.010       .  S
O1661      C1666   1.277       .  A
O1662     Cu1664   2.007       .  S
O1662      C2401   1.277       .  A
Cu1664    Cu2399   2.371       .  S
C1665      C2065   1.476       .  S
C1666      O2392   1.278       .  A
C1666      C1753   1.476       .  S
C1667      C1777   1.469       .  S
C1668      O2394   1.276       .  A
C1668      C1721   1.469       .  S
O1669     Cu1677   2.044       .  S
O1669      C1679   1.282       .  A
O1670     Cu1677   2.045       .  S
O1670      C1680   1.282       .  A
O1671     Cu1677   1.991       .  S
O1671      C1681   1.274       .  A
O1672     Cu1677   1.990       .  S
O1672      C1682   1.275       .  A
O1673     Cu1678   2.035       .  S
O1673      C1682   1.280       .  A
O1674     Cu1678   2.025       .  S
O1674      C1681   1.280       .  A
O1675     Cu1678   1.963       .  S
O1675      C1680   1.272       .  A
O1676     Cu1678   1.964       .  S
O1676      C1679   1.272       .  A
Cu1677    Cu1678   2.367       .  S
C1679      C1729   1.477       .  S
C1680      C1817   1.475       .  S
C1681      C1705   1.473       .  S
C1682      C2121   1.478       .  S
O1683     Cu1691   2.021       .  S
O1684     Cu1691   2.007       .  S
O1685     Cu1691   1.998       .  S
O1686     Cu1691   2.004       .  S
O1687     Cu1692   2.020       .  S
O1687      C1696   1.278       .  A
O1688     Cu1692   2.018       .  S
O1688      C1695   1.278       .  A
O1689     Cu1692   2.002       .  S
O1689      C1694   1.276       .  A
O1690     Cu1692   1.989       .  S
O1690      C1693   1.275       .  A
Cu1692    Cu2427   2.370       .  S
C1693      O2419   1.279       .  A
C1693      C1713   1.475       .  S
C1694      O2420   1.276       .  A
C1694      C1769   1.466       .  S
C1695      O2421   1.275       .  A
C1695      C2433   1.472       .  S
C1696      O2422   1.276       .  A
C1696      C2041   1.474       .  S
C1697      C1698   1.404       .  A
C1698      C1699   1.396       .  A
C1698      H1707   1.083       .  S
C1699      C1700   1.400       .  A
C1699      H1708   1.084       .  S
C1700      C1706   1.404       .  A
C1701      C2436   1.416       .  A
C1701      C1703   1.401       .  A
C1701      C1702   1.405       .  A
C1702      C2433   1.403       .  A
C1702      H1709   1.084       .  S
C1703      C1704   1.397       .  A
C1703      H1710   1.084       .  S
C1704      C2441   1.405       .  A
C1704      H1711   1.083       .  S
C1705      C1706   1.402       .  A
C1706      H1712   1.085       .  S
C1713      C1714   1.406       .  A
C1713      C1718   1.405       .  A
C1714      C1715   1.394       .  A
C1714      H1723   1.083       .  S
C1715      C1716   1.400       .  A
C1715      H1724   1.084       .  S
C1716      C1722   1.401       .  A
C1716      C1717   1.415       .  A
C1717      C1719   1.403       .  A
C1717      C1718   1.404       .  A
C1718      H1725   1.084       .  S
C1719      C1720   1.398       .  A
C1719      H1726   1.084       .  S
C1720      C1721   1.403       .  A
C1720      H1727   1.083       .  S
C1721      C1722   1.401       .  A
C1722      H1728   1.085       .  S
C1729      C1730   1.408       .  A
C1729      C1734   1.405       .  A
C1730      C1731   1.389       .  A
C1730      H1739   1.083       .  S
C1731      C1732   1.395       .  A
C1731      H1740   1.084       .  S
C1732      C1738   1.399       .  A
C1732      C1733   1.416       .  A
C1733      C1735   1.403       .  A
C1733      C1734   1.409       .  A
C1734      H1741   1.084       .  S
C1735      C1736   1.400       .  A
C1735      H1742   1.083       .  S
C1736      C1737   1.404       .  A
C1736      H1743   1.083       .  S
C1737      C1738   1.397       .  A
C1738      H1744   1.085       .  S
C1745      C1746   1.403       .  A
C1745      C1750   1.404       .  A
C1746      C1747   1.398       .  A
C1746      H1755   1.083       .  S
C1747      C1748   1.403       .  A
C1747      H1756   1.084       .  S
C1748      C1754   1.406       .  A
C1748      C1749   1.415       .  A
C1749      C2487   1.402       .  A
C1749      C1750   1.405       .  A
C1750      H2493   1.084       .  S
C1751      C1752   1.398       .  A
C1751      H1758   1.084       .  S
C1752      H1759   1.083       .  S
C1753      C2488   1.404       .  A
C1753      C1754   1.405       .  A
C1754      H1760   1.084       .  S
C1761      C1766   1.405       .  A
C1762      C2497   1.404       .  A
C1762      C1763   1.392       .  A
C1762      H1771   1.083       .  S
C1763      C1764   1.399       .  A
C1763      H1772   1.084       .  S
C1764      C1770   1.399   1_545  A
C1764      C2501   1.415       .  A
C1765      C1767   1.404       .  A
C1765      C1766   1.406       .  A
C1766      H1773   1.084       .  S
C1767      C1768   1.399   1_545  A
C1767      H1774   1.084       .  S
C1768      H1775   1.083       .  S
C1769      C2504   1.403       .  A
C1769      C1770   1.399       .  A
C1770      H1776   1.085       .  S
C1777      C1782   1.401       .  A
C1778      C2513   1.404       .  A
C1778      C1779   1.399       .  A
C1778      H1787   1.083       .  S
C1779      C2516   1.404       .  A
C1779      H1788   1.084       .  S
C1780      C1781   1.414       .  A
C1781      C1783   1.399       .  A
C1781      C1782   1.396       .  A
C1782      H1789   1.085       .  S
C1783      C1784   1.391       .  A
C1783      H1790   1.084       .  S
C1784      C1785   1.403       .  A
C1784      H1791   1.084       .  S
C1786      C2516   1.404       .  A
C1786      C2521   1.404       .  A
C1786      H1792   1.084       .  S
C1793      C2374   1.468       .  S
C1793      C1794   1.403       .  A
C1793      C1798   1.402       .  A
C1794      C1795   1.396       .  A
C1794      H2539   1.084       .  S
C1795      C1796   1.402       .  A
C1795      H1804   1.084       .  S
C1796      C1802   1.402       .  A
C1796      C1797   1.415       .  A
C1797      C1799   1.401       .  A
C1797      C1798   1.402       .  A
C1798      H1805   1.085       .  S
C1799      C1800   1.396       .  A
C1799      H1806   1.084       .  S
C1800      C1801   1.403       .  A
C1800      H1807   1.083       .  S
C1801      C1802   1.404       .  A
C1802      H1808   1.085       .  S
C1809      C2347   1.471       .  S
C1809      C1810   1.405       .  A
C1809      C2550   1.398       .  A
C1810      C1811   1.400       .  A
C1810      H1819   1.082       .  S
C1811      C1812   1.403       .  A
C1811      H1820   1.084       .  S
C1812      C1818   1.409   1_545  A
C1812      C1813   1.417       .  A
C1813      C2551   1.396       .  A
C1813      C2550   1.399       .  A
C1814      H1821   1.085       .  S
C1815      H1822   1.084       .  S
C1816      C2551   1.389   1_565  A
C1816      C1817   1.407       .  A
C1816      H2559   1.084       .  S
C1817      C1818   1.405       .  A
C1818      H1824   1.084       .  S
C1825      C1826   1.402       .  A
C1825      C1830   1.402       .  A
C1826      C1827   1.397       .  A
C1826      H1835   1.083       .  S
C1827      C1828   1.403       .  A
C1827      H1836   1.084       .  S
C1828      C1834   1.402       .  A
C1828      C1829   1.414       .  A
C1829      C1830   1.402       .  A
C1831      C2565   1.401       .  A
C1831      C1832   1.396       .  A
C1831      H1838   1.084       .  S
C1832      C2569   1.404       .  A
C1832      H1839   1.083       .  S
C1833      C1834   1.404       .  A
C1834      H1840   1.084       .  S
H1837      C2566   1.085       .  S
C1841      C1842   1.404       .  A
C1841      C1846   1.400       .  A
C1842      C1843   1.402       .  A
C1842      H1851   1.083       .  S
C1843      C1844   1.405       .  A
C1843      H1852   1.083       .  S
C1844      C1850   1.410       .  A
C1844      C1845   1.416       .  A
C1845      C1847   1.398       .  A
C1845      C1846   1.400       .  A
C1846      H1853   1.085       .  S
C1847      C1848   1.391       .  A
C1847      H1854   1.084       .  S
C1848      C1849   1.404       .  A
C1849      C1850   1.406       .  A
C1850      H1856   1.084       .  S
H1855      C2584   1.084       .  S
C1857      C1858   1.404       .  A
C1857      C1862   1.403       .  A
C1858      C1859   1.393       .  A
C1858      H1867   1.084       .  S
C1859      C1860   1.399       .  A
C1860      C1866   1.402       .  A
C1860      C1861   1.416       .  A
C1861      C1863   1.401       .  A
C1861      C1862   1.406       .  A
C1862      H1869   1.084       .  S
C1863      C1864   1.397       .  A
C1863      H1870   1.084       .  S
C1864      C1865   1.406       .  A
C1864      H1871   1.083       .  S
C1865      C1866   1.402       .  A
H1868      C2595   1.084       .  S
H1872      C2602   1.084       .  S
C1873      C1874   1.405       .  A
C1874      C1875   1.400       .  A
C1874      H1883   1.083       .  S
C1875      C1876   1.403       .  A
C1875      H1884   1.084       .  S
C1876      C1882   1.407       .  A
C1877      C2612   1.415       .  A
C1877      C1879   1.399       .  A
C1877      C1878   1.400       .  A
C1878      C2609   1.402       .  A
C1878      H1885   1.085       .  S
C1879      C1880   1.393       .  A
C1879      H1886   1.084       .  S
C1880      C2617   1.405       .  A
C1880      H1887   1.084       .  S
C1881      C1882   1.405       .  A
C1882      H1888   1.084       .  S
C1889      C1890   1.402       .  A
C1889      C1894   1.402       .  A
C1890      C1891   1.397       .  A
C1890      H1899   1.083       .  S
C1891      C2628   1.403       .  A
C1891      H1900   1.084       .  S
C1892      C1898   1.401   1_455  A
C1892      C1893   1.414       .  A
C1893      C1895   1.401       .  A
C1894      C2629   1.399       .  A
C1894      H2637   1.085       .  S
C1895      C1896   1.394   1_455  A
C1895      H1902   1.084       .  S
C1896      C1897   1.403       .  A
C1896      H1903   1.083       .  S
C1897      C1898   1.403       .  A
C1898      H1904   1.085       .  S
C1905      C1906   1.402       .  A
C1905      C1910   1.404       .  A
C1906      C1907   1.392       .  A
C1906      H1915   1.084       .  S
C1907      C1908   1.399       .  A
C1907      H1916   1.084       .  S
C1908      C1914   1.397       .  A
C1908      C1909   1.414       .  A
C1909      C2647   1.403       .  A
C1909      C1910   1.404       .  A
C1910      H1917   1.084       .  S
C1911      C1912   1.399       .  A
C1911      H1918   1.084       .  S
C1912      H1919   1.083       .  S
C1913      C2345   1.474       .  S
C1913      C2648   1.405       .  A
C1913      C1914   1.403       .  A
C1914      H1920   1.085       .  S
C1921      C1922   1.404       .  A
C1922      C1923   1.394       .  A
C1922      H1931   1.083       .  S
C1923      C1924   1.400       .  A
C1923      H1932   1.084       .  S
C1924      C1930   1.400       .  A
C1925      C2660   1.414       .  A
C1925      C1927   1.402       .  A
C1925      C1926   1.403       .  A
C1926      C2657   1.403       .  A
C1926      H1933   1.084       .  S
C1927      C1928   1.397       .  A
C1927      H1934   1.084       .  S
C1928      C2665   1.403       .  A
C1928      H1935   1.083       .  S
C1929      C1930   1.402       .  A
C1930      H1936   1.085       .  S
C1937      C1938   1.405       .  A
C1937      C1942   1.403       .  A
C1938      C1939   1.403   1_655  A
C1938      H1947   1.083       .  S
C1940      C2675   1.406       .  A
C1940      C1946   1.409       .  A
C1940      C2677   1.414       .  A
C1941      C1942   1.400   1_455  A
C1942      H1949   1.085       .  S
C1943      C2677   1.399       .  A
C1943      C1944   1.393       .  A
C1943      H2686   1.084       .  S
C1944      C1945   1.403       .  A
C1944      H1951   1.084       .  S
C1945      C1946   1.408       .  A
C1946      H1952   1.084       .  S
H1948      C2675   1.083       .  S
C1953      C1954   1.402       .  A
C1953      C1958   1.404       .  A
C1954      C1955   1.396       .  A
C1954      H1963   1.084       .  S
C1955      C1956   1.402       .  A
C1955      H1964   1.084       .  S
C1956      C1962   1.403       .  A
C1956      C1957   1.414       .  A
C1957      C2695   1.403       .  A
C1957      C1958   1.406       .  A
C1958      H1965   1.084       .  S
C1959      C1960   1.399       .  A
C1959      H1966   1.084       .  S
C1960      H1967   1.083       .  S
C1961      C2696   1.405       .  A
C1961      C1962   1.405       .  A
C1962      H1968   1.084       .  S
C1969      C1970   1.404       .  A
C1969      C1974   1.407       .  A
C1970      C1971   1.390       .  A
C1970      H1979   1.083       .  S
C1971      C1972   1.398       .  A
C1971      H1980   1.084       .  S
C1972      C1978   1.397       .  A
C1972      C1973   1.414       .  A
C1973      C1975   1.406       .  A
C1973      C1974   1.408       .  A
C1974      H1981   1.084       .  S
C1975      C1976   1.403       .  A
C1975      H1982   1.083       .  S
C1976      C1977   1.403       .  A
C1976      H1983   1.083       .  S
C1977      C1978   1.400       .  A
C1978      H1984   1.085       .  S
C1985      C1986   1.402       .  A
C1985      C1990   1.400       .  A
C1986      C1987   1.399       .  A
C1986      H1995   1.083       .  S
C1987      C1988   1.404       .  A
C1987      H1996   1.084       .  S
C1988      C1994   1.404       .  A
C1988      C1989   1.414       .  A
C1989      C1990   1.398       .  A
C1991      C2725   1.399       .  A
C1991      C1992   1.392       .  A
C1991      H1998   1.084       .  S
C1992      C2729   1.405       .  A
C1992      H1999   1.083       .  S
C1993      C1994   1.406       .  A
C1994      H2000   1.084       .  S
H1997      C2726   1.085       .  S
C2001      C2002   1.406       .  A
C2001      C2006   1.404       .  A
C2002      C2003   1.395       .  A
C2002      H2011   1.083       .  S
C2003      C2004   1.399       .  A
C2003      H2748   1.084       .  S
C2004      C2010   1.403       .  A
C2004      C2005   1.415       .  A
C2005      C2007   1.401       .  A
C2005      C2006   1.405       .  A
C2007      C2008   1.397       .  A
C2008      C2009   1.405       .  A
C2009      C2010   1.402       .  A
C2010      H2016   1.085       .  S
H2013      C2742   1.084       .  S
H2014      C2743   1.084       .  S
H2015      C2744   1.083       .  S
C2017      C2018   1.405       .  A
C2017      C2022   1.407       .  A
C2018      C2019   1.395   1_565  A
C2018      H2027   1.083       .  S
C2019      C2020   1.400       .  A
C2019      H2028   1.084       .  S
C2020      C2026   1.403       .  A
C2020      C2021   1.415       .  A
C2021      C2023   1.404       .  A
C2021      C2022   1.408   1_545  A
C2022      H2029   1.084       .  S
C2023      C2024   1.401       .  A
C2023      H2030   1.084       .  S
C2024      C2025   1.403       .  A
C2024      H2031   1.083       .  S
C2025      C2026   1.402       .  A
C2026      H2032   1.085       .  S
C2033      C2034   1.403       .  A
C2033      C2038   1.402       .  A
C2034      C2035   1.401       .  A
C2035      C2036   1.404       .  A
C2036      C2042   1.407   1_455  A
C2036      C2037   1.415       .  A
C2037      C2775   1.401       .  A
C2037      C2038   1.402       .  A
C2038      H2045   1.085       .  S
C2039      H2046   1.084       .  S
C2040      C2775   1.395   1_655  A
C2040      C2041   1.403       .  A
C2040      H2783   1.084       .  S
C2041      C2042   1.406       .  A
C2042      H2048   1.084       .  S
H2043      C2770   1.083       .  S
H2044      C2771   1.084       .  S
C2049      C2050   1.405       .  A
C2049      C2054   1.405       .  A
C2050      C2051   1.403       .  A
C2050      H2059   1.083       .  S
C2051      C2052   1.406       .  A
C2051      H2060   1.084       .  S
C2052      C2058   1.410       .  A
C2052      C2053   1.414       .  A
C2053      C2791   1.400       .  A
C2053      C2054   1.401       .  A
C2054      H2797   1.085       .  S
C2055      C2056   1.393       .  A
C2055      H2062   1.084       .  S
C2056      H2063   1.084       .  S
C2057      C2792   1.404       .  A
C2057      C2058   1.408       .  A
C2058      H2064   1.084       .  S
C2065      C2066   1.405       .  A
C2066      C2067   1.399   1_655  A
C2066      H2075   1.083       .  S
C2067      C2068   1.403       .  A
C2067      H2076   1.084       .  S
C2068      C2074   1.407       .  A
C2069      C2804   1.414       .  A
C2069      C2071   1.399       .  A
C2069      C2070   1.402   1_455  A
C2070      C2801   1.403       .  A
C2070      H2077   1.085       .  S
C2071      C2072   1.393       .  A
C2071      H2078   1.084       .  S
C2072      C2809   1.406       .  A
C2072      H2079   1.083       .  S
C2073      C2074   1.406       .  A
C2074      H2080   1.084       .  S
C2081      C2082   1.406       .  A
C2081      C2086   1.404       .  A
C2082      C2083   1.397       .  A
C2082      H2091   1.083       .  S
C2083      C2084   1.401       .  A
C2083      H2092   1.084       .  S
C2084      C2090   1.406       .  A
C2084      C2085   1.416       .  A
C2085      C2087   1.401       .  A
C2085      C2086   1.406       .  A
C2086      H2093   1.084       .  S
C2087      C2088   1.397       .  A
C2087      H2094   1.084       .  S
C2088      C2089   1.405       .  A
C2088      H2095   1.083       .  S
C2089      C2090   1.403       .  A
C2090      H2096   1.084       .  S
C2097      C2098   1.404       .  A
C2097      C2102   1.405       .  A
C2098      C2099   1.396       .  A
C2098      H2107   1.083       .  S
C2099      C2100   1.401       .  A
C2099      H2108   1.084       .  S
C2100      C2106   1.401   1_545  A
C2100      C2101   1.414       .  A
C2101      C2103   1.403       .  A
C2101      C2102   1.402       .  A
C2102      H2109   1.084       .  S
C2103      C2104   1.397   1_545  A
C2103      H2110   1.084       .  S
C2104      C2105   1.403       .  A
C2104      H2111   1.083       .  S
C2105      C2106   1.404       .  A
C2106      H2112   1.085       .  S
C2113      C2114   1.403       .  A
C2113      C2118   1.408       .  A
C2114      C2115   1.394       .  A
C2114      H2123   1.084       .  S
C2115      C2116   1.401       .  A
C2115      H2124   1.084       .  S
C2116      C2122   1.401       .  A
C2116      C2117   1.414       .  A
C2117      C2119   1.406       .  A
C2117      C2118   1.409       .  A
C2118      H2125   1.084       .  S
C2119      C2120   1.403       .  A
C2119      H2126   1.084       .  S
C2120      C2121   1.404       .  A
C2120      H2127   1.083       .  S
C2121      C2122   1.405       .  A
C2122      H2128   1.085       .  S
C2129      C2130   1.405       .  A
C2129      C2134   1.406       .  A
C2130      C2131   1.402       .  A
C2131      C2132   1.405       .  A
C2132      C2138   1.409       .  A
C2132      C2133   1.413       .  A
C2133      C2135   1.401       .  A
C2133      C2134   1.402       .  A
C2134      H2141   1.085       .  S
C2135      C2136   1.395       .  A
C2135      H2142   1.084       .  S
C2136      C2137   1.403       .  A
C2136      H2143   1.084       .  S
C2137      C2138   1.407       .  A
C2138      H2144   1.084       .  S
H2139      C2866   1.083       .  S
H2140      C2867   1.084       .  S
C2145      C2882   1.402       .  A
C2145      C2150   1.401       .  A
C2146      C2147   1.395       .  A
C2146      H2155   1.083       .  S
C2147      C2148   1.401       .  A
C2147      H2156   1.084       .  S
C2148      C2154   1.401       .  A
C2148      C2149   1.415       .  A
C2150      C2885   1.401       .  A
C2150      H2157   1.085       .  S
C2151      C2885   1.400       .  A
C2151      C2888   1.395       .  A
C2151      H2158   1.084       .  S
C2152      C2153   1.405       .  A
C2153      C2154   1.403       .  A
C2154      H2160   1.084       .  S
H2159      C2888   1.083       .  S
C2161      C2162   1.402       .  A
C2161      C2166   1.406       .  A
C2162      C2163   1.397       .  A
C2162      H2171   1.083       .  S
C2163      C2164   1.403       .  A
C2163      H2172   1.084       .  S
C2164      C2170   1.401       .  A
C2164      C2165   1.414       .  A
C2165      C2166   1.404       .  A
C2167      C2901   1.405       .  A
C2167      C2168   1.400       .  A
C2167      H2174   1.084       .  S
C2168      C2169   1.402       .  A
C2168      H2175   1.083       .  S
C2169      C2906   1.404       .  A
C2170      H2176   1.085       .  S
H2173      C2902   1.084       .  S
C2177      C2914   1.402       .  A
C2177      C2182   1.404       .  A
C2178      C2179   1.395       .  A
C2178      H2187   1.084       .  S
C2179      C2180   1.401       .  A
C2179      H2188   1.084       .  S
C2180      C2186   1.401       .  A
C2181      C2916   1.414       .  A
C2181      C2183   1.403       .  A
C2181      C2182   1.405       .  A
C2182      H2189   1.084       .  S
C2183      C2184   1.399       .  A
C2183      H2190   1.084       .  S
C2184      C2185   1.404       .  A
C2184      H2191   1.083       .  S
C2185      C2922   1.404       .  A
C2186      H2192   1.085       .  S
C2193      C2194   1.404       .  A
C2193      C2198   1.402       .  A
C2194      C2195   1.399       .  A
C2194      H2203   1.083       .  S
C2195      C2196   1.403       .  A
C2195      H2204   1.084       .  S
C2196      C2202   1.405       .  A
C2196      C2197   1.415       .  A
C2197      C2199   1.399       .  A
C2197      C2198   1.400       .  A
C2198      H2205   1.085       .  S
C2199      C2200   1.393       .  A
C2199      H2206   1.084       .  S
C2200      C2201   1.404       .  A
C2200      H2207   1.084       .  S
C2201      C2202   1.405       .  A
C2202      H2208   1.084       .  S
O2209     Cu2217   2.009       .  S
O2209      C2219   1.277       .  A
O2210     Cu2217   2.014       .  S
O2210      C2220   1.277       .  A
O2211     Cu2217   2.018       .  S
O2211      C2221   1.278       .  A
O2212     Cu2217   2.015       .  S
O2212      C2222   1.278       .  A
O2213     Cu2218   1.997       .  S
O2214     Cu2218   1.998       .  S
O2215     Cu2218   1.995       .  S
O2216     Cu2218   1.993       .  S
Cu2217    Cu2954   2.373       .  S
C2219      O2952   1.275       .  A
C2219      C2881   1.465       .  S
C2220      O2951   1.276       .  A
C2220      C2937   1.472       .  S
C2221      O2950   1.276       .  A
C2221      C2905   1.470       .  S
C2222      O2949   1.276       .  A
C2222      C2921   1.474       .  S
O2223     Cu2231   2.013       .  S
O2223      C2233   1.277       .  A
O2224     Cu2231   1.999       .  S
O2224      C2234   1.276       .  A
O2225     Cu2231   2.020       .  S
O2225      C2235   1.277       .  A
O2226     Cu2231   2.004       .  S
O2226      C2236   1.277       .  A
O2227     Cu2232   2.022       .  S
O2227      C2236   1.278       .  A
O2228     Cu2232   2.005       .  S
O2228      C2235   1.277       .  A
O2229     Cu2232   2.011       .  S
O2229      C2234   1.277       .  A
O2230     Cu2232   1.995       .  S
O2230      C2233   1.275       .  A
Cu2231    Cu2232   2.372       .  S
C2233      C2841   1.471       .  S
C2234      C2929   1.471       .  S
C2235      C2849   1.475       .  S
C2236      C2873   1.476       .  S
O2237     Cu2245   2.031       .  S
O2237      C2247   1.279       .  A
O2238     Cu2245   2.029       .  S
O2238      C2984   1.280       .  A
O2239     Cu2245   2.005       .  S
O2239      C2249   1.276       .  A
O2240     Cu2245   1.990       .  S
O2240      C2986   1.275       .  A
O2241     Cu2246   2.025       .  S
O2241      C2250   1.279       .  A
O2242     Cu2246   2.008       .  S
O2243     Cu2246   1.993       .  S
O2243      C2248   1.274       .  A
O2244     Cu2246   1.995       .  S
Cu2245    Cu2982   2.370       .  S
C2247      O2980   1.276       .  A
C2247      C2793   1.476       .  S
C2248      C2825   1.474       .  S
C2249      O2978   1.277       .  A
C2249      C2913   1.469       .  S
C2250      C2809   1.477       .  S
O2251     Cu2259   1.995       .  S
O2251      C2261   1.275       .  A
O2252     Cu2259   1.999       .  S
O2252      C2262   1.276       .  A
O2253     Cu2259   2.033       .  S
O2253      C2263   1.281       .  A
O2254     Cu2259   2.019       .  S
O2254      C2264   1.278       .  A
O2255     Cu2260   2.004       .  S
O2255      C2264   1.276       .  A
O2256     Cu2260   1.993       .  S
O2256      C2263   1.276       .  A
O2257     Cu2260   2.026       .  S
O2257      C2262   1.279       .  A
O2258     Cu2260   2.026       .  S
O2258      C2261   1.280       .  A
Cu2259    Cu2260   2.369       .  S
C2261      C2817   1.477       .  S
C2262      C2753   1.478       .  S
C2263      C2865   1.481       .  S
C2264      C2769   1.471       .  S
O2265     Cu2273   2.025       .  S
O2265      C2275   1.280       .  A
O2266     Cu2273   2.025       .  S
O2266      C2276   1.278       .  A
O2267     Cu2273   1.991       .  S
O2267      C2277   1.275       .  A
O2268     Cu2273   1.990       .  S
O2268      C2278   1.275       .  A
O2269     Cu2274   2.012       .  S
O2269      C2278   1.279       .  A
O2270     Cu2274   2.014       .  S
O2270      C2277   1.277       .  A
O2271     Cu2274   1.988       .  S
O2271      C2276   1.275       .  A
O2272     Cu2274   1.988       .  S
O2272      C2275   1.275       .  A
Cu2273    Cu2274   2.368       .  S
C2275      C2737   1.476       .  S
C2276      C2713   1.470       .  S
C2277      C2721   1.466       .  S
C2278      C2889   1.472       .  S
O2279     Cu2287   2.017       .  S
O2279      C2289   1.278       .  A
O2280     Cu2287   2.020       .  S
O2280      C2290   1.277       .  A
O2281     Cu2287   2.009       .  S
O2281      C2291   1.276       .  A
O2282     Cu2287   1.996       .  S
O2282      C2292   1.276       .  A
O2283     Cu2288   2.030       .  S
O2283      C2292   1.280       .  A
O2284     Cu2288   2.011       .  S
O2284      C2291   1.277       .  A
O2285     Cu2288   2.002       .  S
O2285      C2290   1.277       .  A
O2286     Cu2288   1.998       .  S
O2286      C2289   1.275       .  A
Cu2287    Cu2288   2.368       .  S
C2289      C2745   1.473       .  S
C2290      C2681   1.475       .  S
C2291      C2689   1.470       .  S
C2292      C2785   1.481       .  S
O2293     Cu2301   2.001       .  S
O2293      C2303   1.276       .  A
O2294     Cu2301   2.010       .  S
O2294      C2304   1.277       .  A
O2295     Cu2301   2.014       .  S
O2295      C2305   1.278       .  A
O2296     Cu2301   2.000       .  S
O2296      C2306   1.277       .  A
O2297      C2306   1.277       .  A
O2298      C2305   1.276       .  A
O2299      C2304   1.275       .  A
O2300     Cu2302   2.005       .  S
O2300      C3039   1.276       .  A
Cu2302     O3033   2.007       .  S
Cu2302     O3034   1.990       .  S
Cu2302     O3035   1.992       .  S
Cu2302    Cu3037   2.371       .  S
C2303      C2665   1.469       .  S
C2304      C2641   1.466       .  S
C2305      C2729   1.473       .  S
C2306      C2833   1.473       .  S
O2307     Cu2315   2.003       .  S
O2307      C2317   1.277       .  A
O2308     Cu2315   2.004       .  S
O2308      C2318   1.276       .  A
O2309     Cu2315   2.007       .  S
O2309      C2319   1.277       .  A
O2310     Cu2315   2.010       .  S
O2310      C2320   1.277       .  A
O2311     Cu2316   1.994       .  S
O2312     Cu2316   1.992       .  S
O2313     Cu2316   2.020       .  S
O2314     Cu2316   2.018       .  S
Cu2315    Cu3052   2.372       .  S
C2317      O3050   1.279       .  A
C2317      C2697   1.478       .  S
C2318      O3049   1.278       .  A
C2318      C2761   1.472       .  S
C2319      O3048   1.275       .  A
C2319      C2625   1.466       .  S
C2320      O3047   1.275       .  A
C2320      C3393   1.469       .  S
O2321     Cu2329   2.024       .  S
O2321      C3067   1.279       .  A
O2322     Cu2329   2.022       .  S
O2322      C3068   1.280       .  A
O2323     Cu2329   1.986       .  S
O2323      C3069   1.274       .  A
O2324     Cu2329   1.977       .  S
O2324      C3070   1.273       .  A
O2325     Cu2330   2.042       .  S
O2325      C2334   1.281       .  A
O2326     Cu2330   2.029       .  S
O2326      C2333   1.280       .  A
O2327     Cu2330   1.991       .  S
O2327      C2332   1.274       .  A
O2328     Cu2330   1.988       .  S
O2328      C2331   1.275       .  A
Cu2329    Cu3066   2.369       .  S
C2331      C2705   1.474       .  S
C2332      C2601   1.476       .  S
C2333      C2617   1.475       .  S
C2334      C2585   1.473       .  S
O2335     Cu2343   1.993       .  S
O2335      C3081   1.276       .  A
O2336     Cu2343   1.998       .  S
O2336      C3082   1.275       .  A
O2337     Cu2343   2.006       .  S
O2337      C3083   1.274       .  A
O2338     Cu2343   2.008       .  S
O2338      C3084   1.278       .  A
O2339     Cu2344   2.008       .  S
O2339      C2348   1.276       .  A
O2340     Cu2344   2.009       .  S
O2340      C2347   1.277       .  A
O2341     Cu2344   2.010       .  S
O2341      C2346   1.277       .  A
O2342     Cu2344   2.011       .  S
O2342      C2345   1.277       .  A
Cu2343    Cu3080   2.360       .  S
C2346      C2561   1.466       .  S
C2348      C2609   1.475       .  S
O2349     Cu2357   1.989       .  S
O2349      C2359   1.275       .  A
O2350     Cu2357   1.998       .  S
O2350      C2360   1.276       .  A
O2351     Cu2357   2.031       .  S
O2351      C2361   1.280       .  A
O2352     Cu2357   2.028       .  S
O2352      C2362   1.279       .  A
O2353     Cu2358   1.985       .  S
O2353      C2362   1.274       .  A
O2354     Cu2358   1.990       .  S
O2354      C2361   1.275       .  A
O2355     Cu2358   2.010       .  S
O2355      C2360   1.277       .  A
O2356     Cu2358   2.009       .  S
O2356      C2359   1.277       .  A
Cu2357    Cu2358   2.366       .  S
C2359      C2521   1.467       .  S
C2360      C2537   1.471       .  S
C2361      C2673   1.477       .  S
C2362      C2593   1.471       .  S
O2363     Cu2371   2.021       .  S
O2363      C2373   1.279       .  A
O2364     Cu2371   2.007       .  S
O2364      C2374   1.277       .  A
O2365     Cu2371   2.002       .  S
O2365      C2375   1.276       .  A
O2366     Cu2371   1.995       .  S
O2366      C2376   1.276       .  A
O2367     Cu2372   2.003       .  S
O2367      C3112   1.277       .  A
O2368     Cu2372   2.005       .  S
O2368      C3111   1.277       .  A
O2369     Cu2372   2.000       .  S
O2369      C3110   1.276       .  A
O2370     Cu2372   1.987       .  S
O2370      C3109   1.275       .  A
Cu2372    Cu3107   2.372       .  S
C2373      C2497   1.472       .  S
C2375      C2569   1.473       .  S
C2376      C2633   1.468       .  S
O2377     Cu2385   2.006       .  S
O2377      C2387   1.275       .  A
O2378     Cu2385   2.012       .  S
O2378      C2388   1.278       .  A
O2379     Cu2385   2.016       .  S
O2379      C2389   1.278       .  A
O2380     Cu2385   2.009       .  S
O2380      C2390   1.276       .  A
O2381     Cu2386   2.017       .  S
O2381      C2390   1.278       .  A
O2382     Cu2386   2.001       .  S
O2382      C2389   1.276       .  A
O2383     Cu2386   1.998       .  S
O2383      C2388   1.275       .  A
O2384     Cu2386   2.014       .  S
O2384      C2387   1.278       .  A
Cu2385    Cu2386   2.373       .  S
C2387      C2577   1.471       .  S
C2388      C2473   1.467       .  S
C2389      C2897   1.471       .  S
C2390      C2481   1.474       .  S
O2391     Cu2399   2.011       .  S
O2391      C2401   1.277       .  A
O2392     Cu2399   2.014       .  S
O2393     Cu2399   1.985       .  S
O2393      C2403   1.275       .  A
O2394     Cu2399   2.006       .  S
O2395     Cu2400   2.003       .  S
O2395      C2404   1.276       .  A
O2396     Cu2400   2.013       .  S
O2396      C3139   1.277       .  A
O2397     Cu2400   2.010       .  S
O2397      C2402   1.277       .  A
O2398     Cu2400   2.007       .  S
O2398      C3137   1.277       .  A
Cu2400    Cu3135   2.371       .  S
C2401      C2801   1.476       .  S
C2402      O3128   1.278       .  A
C2402      C2489   1.476       .  S
C2403      C2513   1.469       .  S
C2404      O3130   1.276       .  A
C2404      C2457   1.469       .  S
O2405     Cu2413   2.044       .  S
O2405      C2415   1.282       .  A
O2406     Cu2413   2.045       .  S
O2406      C2416   1.282       .  A
O2407     Cu2413   1.991       .  S
O2407      C2417   1.274       .  A
O2408     Cu2413   1.990       .  S
O2408      C2418   1.275       .  A
O2409     Cu2414   2.035       .  S
O2409      C2418   1.280       .  A
O2410     Cu2414   2.025       .  S
O2410      C2417   1.280       .  A
O2411     Cu2414   1.963       .  S
O2411      C2416   1.272       .  A
O2412     Cu2414   1.964       .  S
O2412      C2415   1.272       .  A
Cu2413    Cu2414   2.367       .  S
C2415      C2465   1.477       .  S
C2416      C2553   1.475       .  S
C2417      C2441   1.473       .  S
C2418      C2857   1.478       .  S
O2419     Cu2427   2.021       .  S
O2420     Cu2427   2.007       .  S
O2421     Cu2427   1.998       .  S
O2422     Cu2427   2.004       .  S
O2423     Cu2428   2.020       .  S
O2423      C2432   1.278       .  A
O2424     Cu2428   2.018       .  S
O2424      C2431   1.278       .  A
O2425     Cu2428   2.002       .  S
O2425      C2430   1.276       .  A
O2426     Cu2428   1.989       .  S
O2426      C2429   1.275       .  A
Cu2428    Cu3163   2.370       .  S
C2429      O3155   1.279       .  A
C2429      C2449   1.475       .  S
C2430      O3156   1.276       .  A
C2430      C2505   1.466       .  S
C2431      O3157   1.275       .  A
C2431      C3169   1.472       .  S
C2432      O3158   1.276       .  A
C2432      C2777   1.474       .  S
C2433      C2434   1.404       .  A
C2434      C2435   1.396       .  A
C2434      H2443   1.083       .  S
C2435      C2436   1.400       .  A
C2435      H2444   1.084       .  S
C2436      C2442   1.404       .  A
C2437      C3172   1.416       .  A
C2437      C2439   1.401       .  A
C2437      C2438   1.405       .  A
C2438      C3169   1.403       .  A
C2438      H2445   1.084       .  S
C2439      C2440   1.397       .  A
C2439      H2446   1.084       .  S
C2440      C3177   1.405       .  A
C2440      H2447   1.083       .  S
C2441      C2442   1.402       .  A
C2442      H2448   1.085       .  S
C2449      C2450   1.406       .  A
C2449      C2454   1.405       .  A
C2450      C2451   1.394       .  A
C2450      H2459   1.083       .  S
C2451      C2452   1.400       .  A
C2451      H2460   1.084       .  S
C2452      C2458   1.401       .  A
C2452      C2453   1.415       .  A
C2453      C2455   1.403       .  A
C2453      C2454   1.404       .  A
C2454      H2461   1.084       .  S
C2455      C2456   1.398       .  A
C2455      H2462   1.084       .  S
C2456      C2457   1.403       .  A
C2456      H2463   1.083       .  S
C2457      C2458   1.401       .  A
C2458      H2464   1.085       .  S
C2465      C2466   1.408       .  A
C2465      C2470   1.405       .  A
C2466      C2467   1.389       .  A
C2466      H2475   1.083       .  S
C2467      C2468   1.395       .  A
C2467      H2476   1.084       .  S
C2468      C2474   1.399       .  A
C2468      C2469   1.416       .  A
C2469      C2471   1.403       .  A
C2469      C2470   1.409       .  A
C2470      H2477   1.084       .  S
C2471      C2472   1.400       .  A
C2471      H2478   1.083       .  S
C2472      C2473   1.404       .  A
C2472      H2479   1.083       .  S
C2473      C2474   1.397       .  A
C2474      H2480   1.085       .  S
C2481      C2482   1.403       .  A
C2481      C2486   1.404       .  A
C2482      C2483   1.398       .  A
C2482      H2491   1.083       .  S
C2483      C2484   1.403       .  A
C2483      H2492   1.084       .  S
C2484      C2490   1.406       .  A
C2484      C2485   1.415       .  A
C2485      C3223   1.402       .  A
C2485      C2486   1.405       .  A
C2486      H3229   1.084       .  S
C2487      C2488   1.398       .  A
C2487      H2494   1.084       .  S
C2488      H2495   1.083       .  S
C2489      C3224   1.404       .  A
C2489      C2490   1.405       .  A
C2490      H2496   1.084       .  S
C2497      C2502   1.405       .  A
C2498      C3233   1.404       .  A
C2498      C2499   1.392       .  A
C2498      H2507   1.083       .  S
C2499      C2500   1.399       .  A
C2499      H2508   1.084       .  S
C2500      C2506   1.399   1_545  A
C2500      C3237   1.415       .  A
C2501      C2503   1.404       .  A
C2501      C2502   1.406       .  A
C2502      H2509   1.084       .  S
C2503      C2504   1.399   1_545  A
C2503      H2510   1.084       .  S
C2504      H2511   1.083       .  S
C2505      C3240   1.403       .  A
C2505      C2506   1.399       .  A
C2506      H2512   1.085       .  S
C2513      C2518   1.401       .  A
C2514      C3249   1.404       .  A
C2514      C2515   1.399       .  A
C2514      H2523   1.083       .  S
C2515      C3252   1.404       .  A
C2515      H2524   1.084       .  S
C2516      C2517   1.414       .  A
C2517      C2519   1.399       .  A
C2517      C2518   1.396       .  A
C2518      H2525   1.085       .  S
C2519      C2520   1.391       .  A
C2519      H2526   1.084       .  S
C2520      C2521   1.403       .  A
C2520      H2527   1.084       .  S
C2522      C3252   1.404       .  A
C2522      C3257   1.404       .  A
C2522      H2528   1.084       .  S
C2529      C3110   1.468       .  S
C2529      C2530   1.403       .  A
C2529      C2534   1.402       .  A
C2530      C2531   1.396       .  A
C2530      H3275   1.084       .  S
C2531      C2532   1.402       .  A
C2531      H2540   1.084       .  S
C2532      C2538   1.402       .  A
C2532      C2533   1.415       .  A
C2533      C2535   1.401       .  A
C2533      C2534   1.402       .  A
C2534      H2541   1.085       .  S
C2535      C2536   1.396       .  A
C2535      H2542   1.084       .  S
C2536      C2537   1.403       .  A
C2536      H2543   1.083       .  S
C2537      C2538   1.404       .  A
C2538      H2544   1.085       .  S
C2545      C3083   1.471       .  S
C2545      C2546   1.405       .  A
C2545      C3286   1.398       .  A
C2546      C2547   1.400       .  A
C2546      H2555   1.082       .  S
C2547      C2548   1.403       .  A
C2547      H2556   1.084       .  S
C2548      C2554   1.409   1_545  A
C2548      C2549   1.417       .  A
C2549      C3287   1.396       .  A
C2549      C3286   1.399       .  A
C2550      H2557   1.085       .  S
C2551      H2558   1.084       .  S
C2552      C3287   1.389   1_565  A
C2552      C2553   1.407       .  A
C2552      H3295   1.084       .  S
C2553      C2554   1.405       .  A
C2554      H2560   1.084       .  S
C2561      C2562   1.402       .  A
C2561      C2566   1.402       .  A
C2562      C2563   1.397       .  A
C2562      H2571   1.083       .  S
C2563      C2564   1.403       .  A
C2563      H2572   1.084       .  S
C2564      C2570   1.402       .  A
C2564      C2565   1.414       .  A
C2565      C2566   1.402       .  A
C2567      C3301   1.401       .  A
C2567      C2568   1.396       .  A
C2567      H2574   1.084       .  S
C2568      C3305   1.404       .  A
C2568      H2575   1.083       .  S
C2569      C2570   1.404       .  A
C2570      H2576   1.084       .  S
H2573      C3302   1.085       .  S
C2577      C2578   1.404       .  A
C2577      C2582   1.400       .  A
C2578      C2579   1.402       .  A
C2578      H2587   1.083       .  S
C2579      C2580   1.405       .  A
C2579      H2588   1.083       .  S
C2580      C2586   1.410       .  A
C2580      C2581   1.416       .  A
C2581      C2583   1.398       .  A
C2581      C2582   1.400       .  A
C2582      H2589   1.085       .  S
C2583      C2584   1.391       .  A
C2583      H2590   1.084       .  S
C2584      C2585   1.404       .  A
C2585      C2586   1.406       .  A
C2586      H2592   1.084       .  S
H2591      C3320   1.084       .  S
C2593      C2594   1.404       .  A
C2593      C2598   1.403       .  A
C2594      C2595   1.393       .  A
C2594      H2603   1.084       .  S
C2595      C2596   1.399       .  A
C2596      C2602   1.402       .  A
C2596      C2597   1.416       .  A
C2597      C2599   1.401       .  A
C2597      C2598   1.406       .  A
C2598      H2605   1.084       .  S
C2599      C2600   1.397       .  A
C2599      H2606   1.084       .  S
C2600      C2601   1.406       .  A
C2600      H2607   1.083       .  S
C2601      C2602   1.402       .  A
H2604      C3331   1.084       .  S
H2608      C3338   1.084       .  S
C2609      C2610   1.405       .  A
C2610      C2611   1.400       .  A
C2610      H2619   1.083       .  S
C2611      C2612   1.403       .  A
C2611      H2620   1.084       .  S
C2612      C2618   1.407       .  A
C2613      C3348   1.415       .  A
C2613      C2615   1.399       .  A
C2613      C2614   1.400       .  A
C2614      C3345   1.402       .  A
C2614      H2621   1.085       .  S
C2615      C2616   1.393       .  A
C2615      H2622   1.084       .  S
C2616      C3353   1.405       .  A
C2616      H2623   1.083       .  S
C2617      C2618   1.405       .  A
C2618      H2624   1.084       .  S
C2625      C2626   1.402       .  A
C2625      C2630   1.402       .  A
C2626      C2627   1.396       .  A
C2626      H2635   1.083       .  S
C2627      C3364   1.403       .  A
C2627      H2636   1.084       .  S
C2628      C2634   1.401   1_455  A
C2628      C2629   1.414       .  A
C2629      C2631   1.401       .  A
C2630      C3365   1.399       .  A
C2630      H3373   1.085       .  S
C2631      C2632   1.394   1_455  A
C2631      H2638   1.084       .  S
C2632      C2633   1.403       .  A
C2632      H2639   1.083       .  S
C2633      C2634   1.403       .  A
C2634      H2640   1.084       .  S
C2641      C2642   1.402       .  A
C2641      C2646   1.404       .  A
C2642      C2643   1.392       .  A
C2642      H2651   1.084       .  S
C2643      C2644   1.399       .  A
C2643      H2652   1.084       .  S
C2644      C2650   1.397       .  A
C2644      C2645   1.414       .  A
C2645      C3383   1.403       .  A
C2645      C2646   1.404       .  A
C2646      H2653   1.084       .  S
C2647      C2648   1.399       .  A
C2647      H2654   1.084       .  S
C2648      H2655   1.083       .  S
C2649      C3081   1.474       .  S
C2649      C3384   1.405       .  A
C2649      C2650   1.403       .  A
C2650      H2656   1.085       .  S
C2657      C2658   1.404       .  A
C2658      C2659   1.394       .  A
C2658      H2667   1.083       .  S
C2659      C2660   1.400       .  A
C2659      H2668   1.084       .  S
C2660      C2666   1.400       .  A
C2661      C3396   1.414       .  A
C2661      C2663   1.402       .  A
C2661      C2662   1.403       .  A
C2662      C3393   1.403       .  A
C2662      H2669   1.084       .  S
C2663      C2664   1.397       .  A
C2663      H2670   1.084       .  S
C2664      C3401   1.403       .  A
C2664      H2671   1.083       .  S
C2665      C2666   1.402       .  A
C2666      H2672   1.085       .  S
C2673      C2674   1.405       .  A
C2673      C2678   1.403       .  A
C2674      C2675   1.403   1_655  A
C2674      H2683   1.083       .  S
C2676      C3411   1.406       .  A
C2676      C2682   1.409       .  A
C2676      C3413   1.414       .  A
C2677      C2678   1.399   1_455  A
C2678      H2685   1.085       .  S
C2679      C3413   1.399       .  A
C2679      C2680   1.393       .  A
C2679      H3422   1.084       .  S
C2680      C2681   1.403       .  A
C2680      H2687   1.084       .  S
C2681      C2682   1.408       .  A
C2682      H2688   1.084       .  S
H2684      C3411   1.083       .  S
C2689      C2690   1.402       .  A
C2689      C2694   1.404       .  A
C2690      C2691   1.396       .  A
C2690      H2699   1.084       .  S
C2691      C2692   1.402       .  A
C2691      H2700   1.084       .  S
C2692      C2698   1.403       .  A
C2692      C2693   1.414       .  A
C2693      C3431   1.403       .  A
C2693      C2694   1.406       .  A
C2694      H2701   1.084       .  S
C2695      C2696   1.399       .  A
C2695      H2702   1.084       .  S
C2696      H2703   1.083       .  S
C2697      C3432   1.405       .  A
C2697      C2698   1.405       .  A
C2698      H2704   1.084       .  S
C2705      C2706   1.404       .  A
C2705      C2710   1.407       .  A
C2706      C2707   1.390       .  A
C2706      H2715   1.083       .  S
C2707      C2708   1.398       .  A
C2707      H2716   1.084       .  S
C2708      C2714   1.397       .  A
C2708      C2709   1.414       .  A
C2709      C2711   1.406       .  A
C2709      C2710   1.408       .  A
C2710      H2717   1.084       .  S
C2711      C2712   1.403       .  A
C2711      H2718   1.083       .  S
C2712      C2713   1.403       .  A
C2712      H2719   1.083       .  S
C2713      C2714   1.400       .  A
C2714      H2720   1.085       .  S
C2721      C2722   1.402       .  A
C2721      C2726   1.400       .  A
C2722      C2723   1.399       .  A
C2722      H2731   1.083       .  S
C2723      C2724   1.404       .  A
C2723      H2732   1.084       .  S
C2724      C2730   1.404       .  A
C2724      C2725   1.414       .  A
C2725      C2726   1.398       .  A
C2727      C3461   1.399       .  A
C2727      C2728   1.392       .  A
C2727      H2734   1.084       .  S
C2728      C3465   1.405       .  A
C2728      H2735   1.083       .  S
C2729      C2730   1.406       .  A
C2730      H2736   1.084       .  S
H2733      C3462   1.085       .  S
C2737      C2738   1.406       .  A
C2737      C2742   1.404       .  A
C2738      C2739   1.395       .  A
C2738      H2747   1.083       .  S
C2739      C2740   1.399       .  A
C2739      H3484   1.084       .  S
C2740      C2746   1.403       .  A
C2740      C2741   1.415       .  A
C2741      C2743   1.401       .  A
C2741      C2742   1.405       .  A
C2743      C2744   1.397       .  A
C2744      C2745   1.405       .  A
C2745      C2746   1.402       .  A
C2746      H2752   1.085       .  S
H2749      C3478   1.084       .  S
H2750      C3479   1.084       .  S
H2751      C3480   1.083       .  S
C2753      C2754   1.405       .  A
C2753      C2758   1.407       .  A
C2754      C2755   1.395   1_565  A
C2754      H2763   1.083       .  S
C2755      C2756   1.400       .  A
C2755      H2764   1.084       .  S
C2756      C2762   1.403       .  A
C2756      C2757   1.415       .  A
C2757      C2759   1.404       .  A
C2757      C2758   1.408   1_545  A
C2758      H2765   1.084       .  S
C2759      C2760   1.401       .  A
C2759      H2766   1.084       .  S
C2760      C2761   1.403       .  A
C2760      H2767   1.083       .  S
C2761      C2762   1.402       .  A
C2762      H2768   1.085       .  S
C2769      C2770   1.403       .  A
C2769      C2774   1.402       .  A
C2770      C2771   1.401       .  A
C2771      C2772   1.404       .  A
C2772      C2778   1.407   1_455  A
C2772      C2773   1.415       .  A
C2773      C3511   1.401       .  A
C2773      C2774   1.402       .  A
C2774      H2781   1.085       .  S
C2775      H2782   1.084       .  S
C2776      C3511   1.395   1_655  A
C2776      C2777   1.403       .  A
C2776      H3519   1.084       .  S
C2777      C2778   1.406       .  A
C2778      H2784   1.084       .  S
H2779      C3506   1.083       .  S
H2780      C3507   1.084       .  S
C2785      C2786   1.405       .  A
C2785      C2790   1.405       .  A
C2786      C2787   1.403       .  A
C2786      H2795   1.083       .  S
C2787      C2788   1.406       .  A
C2787      H2796   1.084       .  S
C2788      C2794   1.410       .  A
C2788      C2789   1.414       .  A
C2789      C3527   1.400       .  A
C2789      C2790   1.401       .  A
C2790      H3533   1.085       .  S
C2791      C2792   1.393       .  A
C2791      H2798   1.084       .  S
C2792      H2799   1.084       .  S
C2793      C3528   1.404       .  A
C2793      C2794   1.408       .  A
C2794      H2800   1.084       .  S
C2801      C2802   1.405       .  A
C2802      C2803   1.399   1_655  A
C2802      H2811   1.083       .  S
C2803      C2804   1.403       .  A
C2803      H2812   1.084       .  S
C2804      C2810   1.407       .  A
C2805      C3540   1.414       .  A
C2805      C2807   1.399       .  A
C2805      C2806   1.402   1_455  A
C2806      C3537   1.403       .  A
C2806      H2813   1.085       .  S
C2807      C2808   1.393       .  A
C2807      H2814   1.084       .  S
C2808      C3545   1.406       .  A
C2808      H2815   1.083       .  S
C2809      C2810   1.406       .  A
C2810      H2816   1.084       .  S
C2817      C2818   1.406       .  A
C2817      C2822   1.404       .  A
C2818      C2819   1.397       .  A
C2818      H2827   1.083       .  S
C2819      C2820   1.401       .  A
C2819      H2828   1.084       .  S
C2820      C2826   1.406       .  A
C2820      C2821   1.416       .  A
C2821      C2823   1.401       .  A
C2821      C2822   1.406       .  A
C2822      H2829   1.084       .  S
C2823      C2824   1.397       .  A
C2823      H2830   1.084       .  S
C2824      C2825   1.405       .  A
C2824      H2831   1.083       .  S
C2825      C2826   1.403       .  A
C2826      H2832   1.084       .  S
C2833      C2834   1.404       .  A
C2833      C2838   1.405       .  A
C2834      C2835   1.396       .  A
C2834      H2843   1.083       .  S
C2835      C2836   1.401       .  A
C2835      H2844   1.084       .  S
C2836      C2842   1.401   1_545  A
C2836      C2837   1.414       .  A
C2837      C2839   1.403       .  A
C2837      C2838   1.402       .  A
C2838      H2845   1.084       .  S
C2839      C2840   1.397   1_545  A
C2839      H2846   1.084       .  S
C2840      C2841   1.403       .  A
C2840      H2847   1.083       .  S
C2841      C2842   1.404       .  A
C2842      H2848   1.085       .  S
C2849      C2850   1.403       .  A
C2849      C2854   1.408       .  A
C2850      C2851   1.394       .  A
C2850      H2859   1.084       .  S
C2851      C2852   1.401       .  A
C2851      H2860   1.084       .  S
C2852      C2858   1.401       .  A
C2852      C2853   1.414       .  A
C2853      C2855   1.406       .  A
C2853      C2854   1.409       .  A
C2854      H2861   1.084       .  S
C2855      C2856   1.403       .  A
C2855      H2862   1.084       .  S
C2856      C2857   1.404       .  A
C2856      H2863   1.083       .  S
C2857      C2858   1.405       .  A
C2858      H2864   1.085       .  S
C2865      C2866   1.405       .  A
C2865      C2870   1.406       .  A
C2866      C2867   1.402       .  A
C2867      C2868   1.405       .  A
C2868      C2874   1.409       .  A
C2868      C2869   1.413       .  A
C2869      C2871   1.401       .  A
C2869      C2870   1.402       .  A
C2870      H2877   1.085       .  S
C2871      C2872   1.395       .  A
C2871      H2878   1.084       .  S
C2872      C2873   1.403       .  A
C2872      H2879   1.084       .  S
C2873      C2874   1.407       .  A
C2874      H2880   1.084       .  S
H2875      C3602   1.083       .  S
H2876      C3603   1.084       .  S
C2881      C3618   1.402       .  A
C2881      C2886   1.401       .  A
C2882      C2883   1.395       .  A
C2882      H2891   1.083       .  S
C2883      C2884   1.401       .  A
C2883      H2892   1.084       .  S
C2884      C2890   1.401       .  A
C2884      C2885   1.415       .  A
C2886      C3621   1.401       .  A
C2886      H2893   1.085       .  S
C2887      C3621   1.400       .  A
C2887      C3624   1.395       .  A
C2887      H2894   1.084       .  S
C2888      C2889   1.405       .  A
C2889      C2890   1.403       .  A
C2890      H2896   1.084       .  S
H2895      C3624   1.083       .  S
C2897      C2898   1.402       .  A
C2897      C2902   1.406       .  A
C2898      C2899   1.397       .  A
C2898      H2907   1.083       .  S
C2899      C2900   1.403       .  A
C2899      H2908   1.084       .  S
C2900      C2906   1.401       .  A
C2900      C2901   1.414       .  A
C2901      C2902   1.404       .  A
C2903      C3637   1.405       .  A
C2903      C2904   1.400       .  A
C2903      H2910   1.084       .  S
C2904      C2905   1.402       .  A
C2904      H2911   1.083       .  S
C2905      C3642   1.404       .  A
C2906      H2912   1.085       .  S
H2909      C3638   1.084       .  S
C2913      C3650   1.402       .  A
C2913      C2918   1.404       .  A
C2914      C2915   1.395       .  A
C2914      H2923   1.084       .  S
C2915      C2916   1.402       .  A
C2915      H2924   1.084       .  S
C2916      C2922   1.401       .  A
C2917      C3652   1.414       .  A
C2917      C2919   1.403       .  A
C2917      C2918   1.405       .  A
C2918      H2925   1.084       .  S
C2919      C2920   1.399       .  A
C2919      H2926   1.084       .  S
C2920      C2921   1.404       .  A
C2920      H2927   1.083       .  S
C2921      C3658   1.404       .  A
C2922      H2928   1.085       .  S
C2929      C2930   1.404       .  A
C2929      C2934   1.402       .  A
C2930      C2931   1.399       .  A
C2930      H2939   1.083       .  S
C2931      C2932   1.403       .  A
C2931      H2940   1.084       .  S
C2932      C2938   1.405       .  A
C2932      C2933   1.415       .  A
C2933      C2935   1.399       .  A
C2933      C2934   1.400       .  A
C2934      H2941   1.085       .  S
C2935      C2936   1.393       .  A
C2935      H2942   1.084       .  S
C2936      C2937   1.404       .  A
C2936      H2943   1.084       .  S
C2937      C2938   1.405       .  A
C2938      H2944   1.084       .  S
O2945     Cu2953   2.009       .  S
O2945      C2955   1.277       .  A
O2946     Cu2953   2.014       .  S
O2946      C2956   1.277       .  A
O2947     Cu2953   2.018       .  S
O2947      C2957   1.278       .  A
O2948     Cu2953   2.015       .  S
O2948      C2958   1.278       .  A
O2949     Cu2954   1.997       .  S
O2950     Cu2954   1.998       .  S
O2951     Cu2954   1.995       .  S
O2952     Cu2954   1.993       .  S
Cu2953    Cu3690   2.373       .  S
C2955      O3688   1.275       .  A
C2955      C3617   1.465       .  S
C2956      O3687   1.276       .  A
C2956      C3673   1.472       .  S
C2957      O3686   1.276       .  A
C2957      C3641   1.470       .  S
C2958      O3685   1.276       .  A
C2958      C3657   1.474       .  S
O2959     Cu2967   2.013       .  S
O2959      C2969   1.277       .  A
O2960     Cu2967   1.999       .  S
O2960      C2970   1.276       .  A
O2961     Cu2967   2.020       .  S
O2961      C2971   1.277       .  A
O2962     Cu2967   2.004       .  S
O2962      C2972   1.277       .  A
O2963     Cu2968   2.022       .  S
O2963      C2972   1.278       .  A
O2964     Cu2968   2.005       .  S
O2964      C2971   1.277       .  A
O2965     Cu2968   2.011       .  S
O2965      C2970   1.277       .  A
O2966     Cu2968   1.995       .  S
O2966      C2969   1.275       .  A
Cu2967    Cu2968   2.372       .  S
C2969      C3577   1.471       .  S
C2970      C3665   1.471       .  S
C2971      C3585   1.475       .  S
C2972      C3609   1.476       .  S
O2973     Cu2981   2.031       .  S
O2973      C2983   1.279       .  A
O2974     Cu2981   2.029       .  S
O2974      C3720   1.280       .  A
O2975     Cu2981   2.005       .  S
O2975      C2985   1.276       .  A
O2976     Cu2981   1.990       .  S
O2976      C3722   1.275       .  A
O2977     Cu2982   2.025       .  S
O2977      C2986   1.279       .  A
O2978     Cu2982   2.008       .  S
O2979     Cu2982   1.993       .  S
O2979      C2984   1.274       .  A
O2980     Cu2982   1.995       .  S
Cu2981    Cu3718   2.370       .  S
C2983      O3716   1.276       .  A
C2983      C3529   1.476       .  S
C2984      C3561   1.474       .  S
C2985      O3714   1.277       .  A
C2985      C3649   1.469       .  S
C2986      C3545   1.477       .  S
O2987     Cu2995   1.995       .  S
O2987      C2997   1.275       .  A
O2988     Cu2995   1.999       .  S
O2988      C2998   1.276       .  A
O2989     Cu2995   2.033       .  S
O2989      C2999   1.281       .  A
O2990     Cu2995   2.019       .  S
O2990      C3000   1.278       .  A
O2991     Cu2996   2.004       .  S
O2991      C3000   1.276       .  A
O2992     Cu2996   1.993       .  S
O2992      C2999   1.276       .  A
O2993     Cu2996   2.026       .  S
O2993      C2998   1.279       .  A
O2994     Cu2996   2.026       .  S
O2994      C2997   1.280       .  A
Cu2995    Cu2996   2.369       .  S
C2997      C3553   1.477       .  S
C2998      C3489   1.478       .  S
C2999      C3601   1.481       .  S
C3000      C3505   1.471       .  S
O3001     Cu3009   2.025       .  S
O3001      C3011   1.280       .  A
O3002     Cu3009   2.025       .  S
O3002      C3012   1.278       .  A
O3003     Cu3009   1.991       .  S
O3003      C3013   1.275       .  A
O3004     Cu3009   1.990       .  S
O3004      C3014   1.275       .  A
O3005     Cu3010   2.012       .  S
O3005      C3014   1.279       .  A
O3006     Cu3010   2.014       .  S
O3006      C3013   1.277       .  A
O3007     Cu3010   1.988       .  S
O3007      C3012   1.275       .  A
O3008     Cu3010   1.988       .  S
O3008      C3011   1.275       .  A
Cu3009    Cu3010   2.368       .  S
C3011      C3473   1.476       .  S
C3012      C3449   1.470       .  S
C3013      C3457   1.466       .  S
C3014      C3625   1.472       .  S
O3015     Cu3023   2.017       .  S
O3015      C3025   1.278       .  A
O3016     Cu3023   2.020       .  S
O3016      C3026   1.277       .  A
O3017     Cu3023   2.009       .  S
O3017      C3027   1.276       .  A
O3018     Cu3023   1.996       .  S
O3018      C3028   1.276       .  A
O3019     Cu3024   2.030       .  S
O3019      C3028   1.280       .  A
O3020     Cu3024   2.011       .  S
O3020      C3027   1.277       .  A
O3021     Cu3024   2.002       .  S
O3021      C3026   1.277       .  A
O3022     Cu3024   1.998       .  S
O3022      C3025   1.275       .  A
Cu3023    Cu3024   2.368       .  S
C3025      C3481   1.473       .  S
C3026      C3417   1.475       .  S
C3027      C3425   1.470       .  S
C3028      C3521   1.481       .  S
O3029     Cu3037   2.001       .  S
O3029      C3039   1.276       .  A
O3030     Cu3037   2.010       .  S
O3030      C3040   1.277       .  A
O3031     Cu3037   2.014       .  S
O3031      C3041   1.278       .  A
O3032     Cu3037   2.000       .  S
O3032      C3042   1.277       .  A
O3033      C3042   1.277       .  A
O3034      C3041   1.276       .  A
O3035      C3040   1.275       .  A
O3036     Cu3038   2.005       .  S
O3036      C3775   1.276       .  A
Cu3038     O3769   2.007       .  S
Cu3038     O3770   1.990       .  S
Cu3038     O3771   1.992       .  S
Cu3038    Cu3773   2.371       .  S
C3039      C3401   1.469       .  S
C3040      C3377   1.466       .  S
C3041      C3465   1.473       .  S
C3042      C3569   1.473       .  S
O3043     Cu3051   2.003       .  S
O3043      C3053   1.277       .  A
O3044     Cu3051   2.003       .  S
O3044      C3054   1.276       .  A
O3045     Cu3051   2.007       .  S
O3045      C3055   1.277       .  A
O3046     Cu3051   2.010       .  S
O3046      C3056   1.277       .  A
O3047     Cu3052   1.994       .  S
O3048     Cu3052   1.992       .  S
O3049     Cu3052   2.020       .  S
O3050     Cu3052   2.018       .  S
Cu3051    Cu3788   2.372       .  S
C3053      O3786   1.279       .  A
C3053      C3433   1.478       .  S
C3054      O3785   1.278       .  A
C3054      C3497   1.472       .  S
C3055      O3784   1.275       .  A
C3055      C3361   1.466       .  S
C3056      O3783   1.275       .  A
C3056      C4129   1.469       .  S
O3057     Cu3065   2.024       .  S
O3057      C3803   1.279       .  A
O3058     Cu3065   2.022       .  S
O3058      C3804   1.280       .  A
O3059     Cu3065   1.986       .  S
O3059      C3805   1.274       .  A
O3060     Cu3065   1.977       .  S
O3060      C3806   1.273       .  A
O3061     Cu3066   2.042       .  S
O3061      C3070   1.281       .  A
O3062     Cu3066   2.029       .  S
O3062      C3069   1.280       .  A
O3063     Cu3066   1.991       .  S
O3063      C3068   1.274       .  A
O3064     Cu3066   1.988       .  S
O3064      C3067   1.275       .  A
Cu3065    Cu3802   2.369       .  S
C3067      C3441   1.474       .  S
C3068      C3337   1.476       .  S
C3069      C3353   1.475       .  S
C3070      C3321   1.473       .  S
O3071     Cu3079   1.993       .  S
O3071      C3817   1.276       .  A
O3072     Cu3079   1.998       .  S
O3072      C3818   1.275       .  A
O3073     Cu3079   2.006       .  S
O3073      C3819   1.274       .  A
O3074     Cu3079   2.008       .  S
O3074      C3820   1.278       .  A
O3075     Cu3080   2.008       .  S
O3075      C3084   1.276       .  A
O3076     Cu3080   2.009       .  S
O3076      C3083   1.277       .  A
O3077     Cu3080   2.010       .  S
O3077      C3082   1.277       .  A
O3078     Cu3080   2.011       .  S
O3078      C3081   1.277       .  A
Cu3079    Cu3816   2.360       .  S
C3082      C3297   1.466       .  S
C3084      C3345   1.475       .  S
O3085     Cu3093   1.989       .  S
O3085      C3095   1.275       .  A
O3086     Cu3093   1.998       .  S
O3086      C3096   1.276       .  A
O3087     Cu3093   2.031       .  S
O3087      C3097   1.280       .  A
O3088     Cu3093   2.028       .  S
O3088      C3098   1.279       .  A
O3089     Cu3094   1.985       .  S
O3089      C3098   1.274       .  A
O3090     Cu3094   1.990       .  S
O3090      C3097   1.275       .  A
O3091     Cu3094   2.010       .  S
O3091      C3096   1.277       .  A
O3092     Cu3094   2.009       .  S
O3092      C3095   1.277       .  A
Cu3093    Cu3094   2.366       .  S
C3095      C3257   1.467       .  S
C3096      C3273   1.471       .  S
C3097      C3409   1.477       .  S
C3098      C3329   1.471       .  S
O3099     Cu3107   2.021       .  S
O3099      C3109   1.279       .  A
O3100     Cu3107   2.007       .  S
O3100      C3110   1.277       .  A
O3101     Cu3107   2.002       .  S
O3101      C3111   1.276       .  A
O3102     Cu3107   1.995       .  S
O3102      C3112   1.276       .  A
O3103     Cu3108   2.003       .  S
O3103      C3848   1.277       .  A
O3104     Cu3108   2.006       .  S
O3104      C3847   1.277       .  A
O3105     Cu3108   2.000       .  S
O3105      C3846   1.276       .  A
O3106     Cu3108   1.987       .  S
O3106      C3845   1.275       .  A
Cu3108    Cu3843   2.372       .  S
C3109      C3233   1.472       .  S
C3111      C3305   1.472       .  S
C3112      C3369   1.468       .  S
O3113     Cu3121   2.006       .  S
O3113      C3123   1.275       .  A
O3114     Cu3121   2.012       .  S
O3114      C3124   1.278       .  A
O3115     Cu3121   2.016       .  S
O3115      C3125   1.278       .  A
O3116     Cu3121   2.009       .  S
O3116      C3126   1.276       .  A
O3117     Cu3122   2.017       .  S
O3117      C3126   1.278       .  A
O3118     Cu3122   2.001       .  S
O3118      C3125   1.276       .  A
O3119     Cu3122   1.998       .  S
O3119      C3124   1.275       .  A
O3120     Cu3122   2.014       .  S
O3120      C3123   1.278       .  A
Cu3121    Cu3122   2.373       .  S
C3123      C3313   1.471       .  S
C3124      C3209   1.467       .  S
C3125      C3633   1.471       .  S
C3126      C3217   1.474       .  S
O3127     Cu3135   2.011       .  S
O3127      C3137   1.277       .  A
O3128     Cu3135   2.014       .  S
O3129     Cu3135   1.985       .  S
O3129      C3139   1.275       .  A
O3130     Cu3135   2.006       .  S
O3131     Cu3136   2.003       .  S
O3131      C3140   1.276       .  A
O3132     Cu3136   2.013       .  S
O3132      C3875   1.277       .  A
O3133     Cu3136   2.010       .  S
O3133      C3138   1.277       .  A
O3134     Cu3136   2.007       .  S
O3134      C3873   1.277       .  A
Cu3136    Cu3871   2.371       .  S
C3137      C3537   1.476       .  S
C3138      O3864   1.278       .  A
C3138      C3225   1.476       .  S
C3139      C3249   1.469       .  S
C3140      O3866   1.276       .  A
C3140      C3193   1.469       .  S
O3141     Cu3149   2.044       .  S
O3141      C3151   1.282       .  A
O3142     Cu3149   2.045       .  S
O3142      C3152   1.282       .  A
O3143     Cu3149   1.991       .  S
O3143      C3153   1.274       .  A
O3144     Cu3149   1.990       .  S
O3144      C3154   1.275       .  A
O3145     Cu3150   2.035       .  S
O3145      C3154   1.280       .  A
O3146     Cu3150   2.025       .  S
O3146      C3153   1.280       .  A
O3147     Cu3150   1.963       .  S
O3147      C3152   1.272       .  A
O3148     Cu3150   1.964       .  S
O3148      C3151   1.272       .  A
Cu3149    Cu3150   2.367       .  S
C3151      C3201   1.477       .  S
C3152      C3289   1.475       .  S
C3153      C3177   1.473       .  S
C3154      C3593   1.478       .  S
O3155     Cu3163   2.021       .  S
O3156     Cu3163   2.007       .  S
O3157     Cu3163   1.998       .  S
O3158     Cu3163   2.004       .  S
O3159     Cu3164   2.020       .  S
O3159      C3168   1.278       .  A
O3160     Cu3164   2.018       .  S
O3160      C3167   1.278       .  A
O3161     Cu3164   2.002       .  S
O3161      C3166   1.276       .  A
O3162     Cu3164   1.989       .  S
O3162      C3165   1.275       .  A
Cu3164    Cu3899   2.370       .  S
C3165      O3891   1.279       .  A
C3165      C3185   1.475       .  S
C3166      O3892   1.276       .  A
C3166      C3241   1.466       .  S
C3167      O3893   1.275       .  A
C3167      C3905   1.472       .  S
C3168      O3894   1.276       .  A
C3168      C3513   1.474       .  S
C3169      C3170   1.404       .  A
C3170      C3171   1.396       .  A
C3170      H3179   1.083       .  S
C3171      C3172   1.400       .  A
C3171      H3180   1.084       .  S
C3172      C3178   1.404       .  A
C3173      C3908   1.416       .  A
C3173      C3175   1.401       .  A
C3173      C3174   1.405       .  A
C3174      C3905   1.403       .  A
C3174      H3181   1.084       .  S
C3175      C3176   1.397       .  A
C3175      H3182   1.084       .  S
C3176      C3913   1.405       .  A
C3176      H3183   1.083       .  S
C3177      C3178   1.402       .  A
C3178      H3184   1.085       .  S
C3185      C3186   1.406       .  A
C3185      C3190   1.405       .  A
C3186      C3187   1.394       .  A
C3186      H3195   1.083       .  S
C3187      C3188   1.400       .  A
C3187      H3196   1.084       .  S
C3188      C3194   1.401       .  A
C3188      C3189   1.415       .  A
C3189      C3191   1.403       .  A
C3189      C3190   1.404       .  A
C3190      H3197   1.084       .  S
C3191      C3192   1.398       .  A
C3191      H3198   1.084       .  S
C3192      C3193   1.403       .  A
C3192      H3199   1.083       .  S
C3193      C3194   1.401       .  A
C3194      H3200   1.085       .  S
C3201      C3202   1.408       .  A
C3201      C3206   1.405       .  A
C3202      C3203   1.389       .  A
C3202      H3211   1.084       .  S
C3203      C3204   1.395       .  A
C3203      H3212   1.084       .  S
C3204      C3210   1.399       .  A
C3204      C3205   1.416       .  A
C3205      C3207   1.403       .  A
C3205      C3206   1.409       .  A
C3206      H3213   1.084       .  S
C3207      C3208   1.400       .  A
C3207      H3214   1.083       .  S
C3208      C3209   1.404       .  A
C3208      H3215   1.083       .  S
C3209      C3210   1.397       .  A
C3210      H3216   1.085       .  S
C3217      C3218   1.403       .  A
C3217      C3222   1.404       .  A
C3218      C3219   1.398       .  A
C3218      H3227   1.083       .  S
C3219      C3220   1.403       .  A
C3219      H3228   1.084       .  S
C3220      C3226   1.406       .  A
C3220      C3221   1.415       .  A
C3221      C3959   1.402       .  A
C3221      C3222   1.405       .  A
C3222      H3965   1.084       .  S
C3223      C3224   1.398       .  A
C3223      H3230   1.084       .  S
C3224      H3231   1.083       .  S
C3225      C3960   1.404       .  A
C3225      C3226   1.405       .  A
C3226      H3232   1.084       .  S
C3233      C3238   1.405       .  A
C3234      C3969   1.404       .  A
C3234      C3235   1.392       .  A
C3234      H3243   1.083       .  S
C3235      C3236   1.399       .  A
C3235      H3244   1.084       .  S
C3236      C3242   1.399   1_545  A
C3236      C3973   1.415       .  A
C3237      C3239   1.404       .  A
C3237      C3238   1.406       .  A
C3238      H3245   1.084       .  S
C3239      C3240   1.399   1_545  A
C3239      H3246   1.084       .  S
C3240      H3247   1.083       .  S
C3241      C3976   1.403       .  A
C3241      C3242   1.399       .  A
C3242      H3248   1.085       .  S
C3249      C3254   1.401       .  A
C3250      C3985   1.404       .  A
C3250      C3251   1.399       .  A
C3250      H3259   1.083       .  S
C3251      C3988   1.404       .  A
C3251      H3260   1.084       .  S
C3252      C3253   1.414       .  A
C3253      C3255   1.399       .  A
C3253      C3254   1.396       .  A
C3254      H3261   1.085       .  S
C3255      C3256   1.391       .  A
C3255      H3262   1.084       .  S
C3256      C3257   1.403       .  A
C3256      H3263   1.084       .  S
C3258      C3988   1.404       .  A
C3258      C3993   1.404       .  A
C3258      H3264   1.084       .  S
C3265      C3846   1.468       .  S
C3265      C3266   1.403       .  A
C3265      C3270   1.402       .  A
C3266      C3267   1.396       .  A
C3266      H4011   1.084       .  S
C3267      C3268   1.402       .  A
C3267      H3276   1.084       .  S
C3268      C3274   1.402       .  A
C3268      C3269   1.415       .  A
C3269      C3271   1.401       .  A
C3269      C3270   1.402       .  A
C3270      H3277   1.085       .  S
C3271      C3272   1.396       .  A
C3271      H3278   1.084       .  S
C3272      C3273   1.403       .  A
C3272      H3279   1.083       .  S
C3273      C3274   1.404       .  A
C3274      H3280   1.085       .  S
C3281      C3819   1.471       .  S
C3281      C3282   1.405       .  A
C3281      C4022   1.398       .  A
C3282      C3283   1.400       .  A
C3282      H3291   1.082       .  S
C3283      C3284   1.403       .  A
C3283      H3292   1.084       .  S
C3284      C3290   1.409   1_545  A
C3284      C3285   1.417       .  A
C3285      C4023   1.396       .  A
C3285      C4022   1.399       .  A
C3286      H3293   1.085       .  S
C3287      H3294   1.084       .  S
C3288      C4023   1.389   1_565  A
C3288      C3289   1.407       .  A
C3288      H4031   1.084       .  S
C3289      C3290   1.405       .  A
C3290      H3296   1.084       .  S
C3297      C3298   1.402       .  A
C3297      C3302   1.402       .  A
C3298      C3299   1.397       .  A
C3298      H3307   1.083       .  S
C3299      C3300   1.403       .  A
C3299      H3308   1.084       .  S
C3300      C3306   1.402       .  A
C3300      C3301   1.414       .  A
C3301      C3302   1.402       .  A
C3303      C4037   1.401       .  A
C3303      C3304   1.396       .  A
C3303      H3310   1.084       .  S
C3304      C4041   1.404       .  A
C3304      H3311   1.083       .  S
C3305      C3306   1.404       .  A
C3306      H3312   1.084       .  S
H3309      C4038   1.085       .  S
C3313      C3314   1.404       .  A
C3313      C3318   1.400       .  A
C3314      C3315   1.402       .  A
C3314      H3323   1.083       .  S
C3315      C3316   1.405       .  A
C3315      H3324   1.083       .  S
C3316      C3322   1.410       .  A
C3316      C3317   1.416       .  A
C3317      C3319   1.398       .  A
C3317      C3318   1.400       .  A
C3318      H3325   1.085       .  S
C3319      C3320   1.391       .  A
C3319      H3326   1.084       .  S
C3320      C3321   1.404       .  A
C3321      C3322   1.406       .  A
C3322      H3328   1.084       .  S
H3327      C4056   1.084       .  S
C3329      C3330   1.404       .  A
C3329      C3334   1.403       .  A
C3330      C3331   1.393       .  A
C3330      H3339   1.084       .  S
C3331      C3332   1.399       .  A
C3332      C3338   1.402       .  A
C3332      C3333   1.416       .  A
C3333      C3335   1.401       .  A
C3333      C3334   1.406       .  A
C3334      H3341   1.084       .  S
C3335      C3336   1.397       .  A
C3335      H3342   1.084       .  S
C3336      C3337   1.406       .  A
C3336      H3343   1.083       .  S
C3337      C3338   1.402       .  A
H3340      C4067   1.084       .  S
H3344      C4074   1.084       .  S
C3345      C3346   1.405       .  A
C3346      C3347   1.400       .  A
C3346      H3355   1.083       .  S
C3347      C3348   1.403       .  A
C3347      H3356   1.084       .  S
C3348      C3354   1.407       .  A
C3349      C4084   1.415       .  A
C3349      C3351   1.399       .  A
C3349      C3350   1.400       .  A
C3350      C4081   1.402       .  A
C3350      H3357   1.085       .  S
C3351      C3352   1.393       .  A
C3351      H3358   1.084       .  S
C3352      C4089   1.405       .  A
C3352      H3359   1.084       .  S
C3353      C3354   1.405       .  A
C3354      H3360   1.084       .  S
C3361      C3362   1.402       .  A
C3361      C3366   1.402       .  A
C3362      C3363   1.396       .  A
C3362      H3371   1.083       .  S
C3363      C4100   1.403       .  A
C3363      H3372   1.084       .  S
C3364      C3370   1.401   1_455  A
C3364      C3365   1.414       .  A
C3365      C3367   1.401       .  A
C3366      C4101   1.399       .  A
C3366      H4109   1.085       .  S
C3367      C3368   1.394   1_455  A
C3367      H3374   1.084       .  S
C3368      C3369   1.403       .  A
C3368      H3375   1.083       .  S
C3369      C3370   1.403       .  A
C3370      H3376   1.084       .  S
C3377      C3378   1.402       .  A
C3377      C3382   1.404       .  A
C3378      C3379   1.392       .  A
C3378      H3387   1.084       .  S
C3379      C3380   1.399       .  A
C3379      H3388   1.084       .  S
C3380      C3386   1.397       .  A
C3380      C3381   1.414       .  A
C3381      C4119   1.403       .  A
C3381      C3382   1.404       .  A
C3382      H3389   1.084       .  S
C3383      C3384   1.399       .  A
C3383      H3390   1.084       .  S
C3384      H3391   1.083       .  S
C3385      C3817   1.474       .  S
C3385      C4120   1.405       .  A
C3385      C3386   1.403       .  A
C3386      H3392   1.085       .  S
C3393      C3394   1.404       .  A
C3394      C3395   1.394       .  A
C3394      H3403   1.083       .  S
C3395      C3396   1.400       .  A
C3395      H3404   1.084       .  S
C3396      C3402   1.400       .  A
C3397      C4132   1.414       .  A
C3397      C3399   1.402       .  A
C3397      C3398   1.403       .  A
C3398      C4129   1.403       .  A
C3398      H3405   1.084       .  S
C3399      C3400   1.397       .  A
C3399      H3406   1.084       .  S
C3400      C4137   1.403       .  A
C3400      H3407   1.083       .  S
C3401      C3402   1.402       .  A
C3402      H3408   1.085       .  S
C3409      C3410   1.405       .  A
C3409      C3414   1.403       .  A
C3410      C3411   1.403   1_655  A
C3410      H3419   1.083       .  S
C3412      C4147   1.406       .  A
C3412      C3418   1.409       .  A
C3412      C4149   1.414       .  A
C3413      C3414   1.399   1_455  A
C3414      H3421   1.085       .  S
C3415      C4149   1.399       .  A
C3415      C3416   1.393       .  A
C3415      H4158   1.084       .  S
C3416      C3417   1.403       .  A
C3416      H3423   1.084       .  S
C3417      C3418   1.408       .  A
C3418      H3424   1.084       .  S
H3420      C4147   1.083       .  S
C3425      C3426   1.402       .  A
C3425      C3430   1.404       .  A
C3426      C3427   1.396       .  A
C3426      H3435   1.084       .  S
C3427      C3428   1.402       .  A
C3427      H3436   1.084       .  S
C3428      C3434   1.403       .  A
C3428      C3429   1.414       .  A
C3429      C4167   1.403       .  A
C3429      C3430   1.406       .  A
C3430      H3437   1.084       .  S
C3431      C3432   1.399       .  A
C3431      H3438   1.084       .  S
C3432      H3439   1.083       .  S
C3433      C4168   1.405       .  A
C3433      C3434   1.405       .  A
C3434      H3440   1.084       .  S
C3441      C3442   1.404       .  A
C3441      C3446   1.407       .  A
C3442      C3443   1.390       .  A
C3442      H3451   1.083       .  S
C3443      C3444   1.398       .  A
C3443      H3452   1.084       .  S
C3444      C3450   1.397       .  A
C3444      C3445   1.414       .  A
C3445      C3447   1.406       .  A
C3445      C3446   1.408       .  A
C3446      H3453   1.084       .  S
C3447      C3448   1.403       .  A
C3447      H3454   1.084       .  S
C3448      C3449   1.403       .  A
C3448      H3455   1.083       .  S
C3449      C3450   1.400       .  A
C3450      H3456   1.085       .  S
C3457      C3458   1.402       .  A
C3457      C3462   1.400       .  A
C3458      C3459   1.399       .  A
C3458      H3467   1.083       .  S
C3459      C3460   1.404       .  A
C3459      H3468   1.084       .  S
C3460      C3466   1.404       .  A
C3460      C3461   1.414       .  A
C3461      C3462   1.398       .  A
C3463      C4197   1.399       .  A
C3463      C3464   1.392       .  A
C3463      H3470   1.084       .  S
C3464      C4201   1.405       .  A
C3464      H3471   1.083       .  S
C3465      C3466   1.406       .  A
C3466      H3472   1.084       .  S
H3469      C4198   1.085       .  S
C3473      C3474   1.406       .  A
C3473      C3478   1.404       .  A
C3474      C3475   1.395       .  A
C3474      H3483   1.083       .  S
C3475      C3476   1.399       .  A
C3475      H4220   1.084       .  S
C3476      C3482   1.403       .  A
C3476      C3477   1.415       .  A
C3477      C3479   1.401       .  A
C3477      C3478   1.405       .  A
C3479      C3480   1.397       .  A
C3480      C3481   1.405       .  A
C3481      C3482   1.402       .  A
C3482      H3488   1.085       .  S
H3485      C4214   1.084       .  S
H3486      C4215   1.084       .  S
H3487      C4216   1.083       .  S
C3489      C3490   1.405       .  A
C3489      C3494   1.407       .  A
C3490      C3491   1.395   1_565  A
C3490      H3499   1.083       .  S
C3491      C3492   1.400       .  A
C3491      H3500   1.084       .  S
C3492      C3498   1.403       .  A
C3492      C3493   1.415       .  A
C3493      C3495   1.404       .  A
C3493      C3494   1.408   1_545  A
C3494      H3501   1.084       .  S
C3495      C3496   1.401       .  A
C3495      H3502   1.084       .  S
C3496      C3497   1.403       .  A
C3496      H3503   1.083       .  S
C3497      C3498   1.402       .  A
C3498      H3504   1.085       .  S
C3505      C3506   1.403       .  A
C3505      C3510   1.402       .  A
C3506      C3507   1.401       .  A
C3507      C3508   1.404       .  A
C3508      C3514   1.407   1_455  A
C3508      C3509   1.415       .  A
C3509      C4247   1.401       .  A
C3509      C3510   1.402       .  A
C3510      H3517   1.085       .  S
C3511      H3518   1.084       .  S
C3512      C4247   1.395   1_655  A
C3512      C3513   1.403       .  A
C3512      H4255   1.084       .  S
C3513      C3514   1.406       .  A
C3514      H3520   1.084       .  S
H3515      C4242   1.083       .  S
H3516      C4243   1.084       .  S
C3521      C3522   1.405       .  A
C3521      C3526   1.405       .  A
C3522      C3523   1.403       .  A
C3522      H3531   1.083       .  S
C3523      C3524   1.405       .  A
C3523      H3532   1.084       .  S
C3524      C3530   1.410       .  A
C3524      C3525   1.414       .  A
C3525      C4263   1.400       .  A
C3525      C3526   1.401       .  A
C3526      H4269   1.085       .  S
C3527      C3528   1.393       .  A
C3527      H3534   1.084       .  S
C3528      H3535   1.084       .  S
C3529      C4264   1.404       .  A
C3529      C3530   1.408       .  A
C3530      H3536   1.084       .  S
C3537      C3538   1.405       .  A
C3538      C3539   1.399   1_655  A
C3538      H3547   1.083       .  S
C3539      C3540   1.403       .  A
C3539      H3548   1.084       .  S
C3540      C3546   1.407       .  A
C3541      C4276   1.414       .  A
C3541      C3543   1.399       .  A
C3541      C3542   1.402   1_455  A
C3542      C4273   1.403       .  A
C3542      H3549   1.085       .  S
C3543      C3544   1.393       .  A
C3543      H3550   1.084       .  S
C3544      C4281   1.406       .  A
C3544      H3551   1.083       .  S
C3545      C3546   1.406       .  A
C3546      H3552   1.084       .  S
C3553      C3554   1.406       .  A
C3553      C3558   1.404       .  A
C3554      C3555   1.397       .  A
C3554      H3563   1.083       .  S
C3555      C3556   1.401       .  A
C3555      H3564   1.084       .  S
C3556      C3562   1.406       .  A
C3556      C3557   1.416       .  A
C3557      C3559   1.401       .  A
C3557      C3558   1.406       .  A
C3558      H3565   1.084       .  S
C3559      C3560   1.397       .  A
C3559      H3566   1.084       .  S
C3560      C3561   1.405       .  A
C3560      H3567   1.083       .  S
C3561      C3562   1.403       .  A
C3562      H3568   1.084       .  S
C3569      C3570   1.404       .  A
C3569      C3574   1.405       .  A
C3570      C3571   1.396       .  A
C3570      H3579   1.083       .  S
C3571      C3572   1.402       .  A
C3571      H3580   1.084       .  S
C3572      C3578   1.401   1_545  A
C3572      C3573   1.414       .  A
C3573      C3575   1.403       .  A
C3573      C3574   1.402       .  A
C3574      H3581   1.084       .  S
C3575      C3576   1.397   1_545  A
C3575      H3582   1.084       .  S
C3576      C3577   1.403       .  A
C3576      H3583   1.083       .  S
C3577      C3578   1.404       .  A
C3578      H3584   1.085       .  S
C3585      C3586   1.403       .  A
C3585      C3590   1.408       .  A
C3586      C3587   1.394       .  A
C3586      H3595   1.084       .  S
C3587      C3588   1.401       .  A
C3587      H3596   1.084       .  S
C3588      C3594   1.401       .  A
C3588      C3589   1.414       .  A
C3589      C3591   1.406       .  A
C3589      C3590   1.409       .  A
C3590      H3597   1.084       .  S
C3591      C3592   1.403       .  A
C3591      H3598   1.084       .  S
C3592      C3593   1.404       .  A
C3592      H3599   1.083       .  S
C3593      C3594   1.405       .  A
C3594      H3600   1.085       .  S
C3601      C3602   1.405       .  A
C3601      C3606   1.406       .  A
C3602      C3603   1.402       .  A
C3603      C3604   1.405       .  A
C3604      C3610   1.409       .  A
C3604      C3605   1.413       .  A
C3605      C3607   1.401       .  A
C3605      C3606   1.402       .  A
C3606      H3613   1.085       .  S
C3607      C3608   1.395       .  A
C3607      H3614   1.084       .  S
C3608      C3609   1.403       .  A
C3608      H3615   1.084       .  S
C3609      C3610   1.407       .  A
C3610      H3616   1.084       .  S
H3611      C4338   1.083       .  S
H3612      C4339   1.084       .  S
C3617      C4354   1.402       .  A
C3617      C3622   1.401       .  A
C3618      C3619   1.395       .  A
C3618      H3627   1.083       .  S
C3619      C3620   1.401       .  A
C3619      H3628   1.084       .  S
C3620      C3626   1.401       .  A
C3620      C3621   1.415       .  A
C3622      C4357   1.401       .  A
C3622      H3629   1.085       .  S
C3623      C4357   1.400       .  A
C3623      C4360   1.395       .  A
C3623      H3630   1.084       .  S
C3624      C3625   1.405       .  A
C3625      C3626   1.403       .  A
C3626      H3632   1.084       .  S
H3631      C4360   1.083       .  S
C3633      C3634   1.402       .  A
C3633      C3638   1.406       .  A
C3634      C3635   1.397       .  A
C3634      H3643   1.083       .  S
C3635      C3636   1.403       .  A
C3635      H3644   1.084       .  S
C3636      C3642   1.401       .  A
C3636      C3637   1.414       .  A
C3637      C3638   1.404       .  A
C3639      C4373   1.405       .  A
C3639      C3640   1.400       .  A
C3639      H3646   1.084       .  S
C3640      C3641   1.402       .  A
C3640      H3647   1.083       .  S
C3641      C4378   1.404       .  A
C3642      H3648   1.085       .  S
H3645      C4374   1.084       .  S
C3649      C4386   1.402       .  A
C3649      C3654   1.404       .  A
C3650      C3651   1.395       .  A
C3650      H3659   1.084       .  S
C3651      C3652   1.402       .  A
C3651      H3660   1.084       .  S
C3652      C3658   1.401       .  A
C3653      C4388   1.414       .  A
C3653      C3655   1.403       .  A
C3653      C3654   1.404       .  A
C3654      H3661   1.084       .  S
C3655      C3656   1.399       .  A
C3655      H3662   1.084       .  S
C3656      C3657   1.404       .  A
C3656      H3663   1.083       .  S
C3657      C4394   1.404       .  A
C3658      H3664   1.085       .  S
C3665      C3666   1.404       .  A
C3665      C3670   1.402       .  A
C3666      C3667   1.399       .  A
C3666      H3675   1.083       .  S
C3667      C3668   1.403       .  A
C3667      H3676   1.084       .  S
C3668      C3674   1.405       .  A
C3668      C3669   1.415       .  A
C3669      C3671   1.399       .  A
C3669      C3670   1.400       .  A
C3670      H3677   1.085       .  S
C3671      C3672   1.393       .  A
C3671      H3678   1.084       .  S
C3672      C3673   1.404       .  A
C3672      H3679   1.083       .  S
C3673      C3674   1.405       .  A
C3674      H3680   1.084       .  S
O3681     Cu3689   2.009       .  S
O3681      C3691   1.277   1_556  A
O3682     Cu3689   2.014       .  S
O3682      C3692   1.277       .  A
O3683     Cu3689   2.018       .  S
O3683      C3693   1.278   1_556  A
O3684     Cu3689   2.015       .  S
O3684      C3694   1.278       .  A
O3685     Cu3690   1.997       .  S
O3686     Cu3690   1.998       .  S
O3687     Cu3690   1.995       .  S
O3688     Cu3690   1.993       .  S
C3691      C4353   1.465       .  S
C3692      C4409   1.472       .  S
C3693      C4377   1.470       .  S
C3694      C4393   1.474       .  S
O3695     Cu3703   2.013       .  S
O3695      C3705   1.277       .  A
O3696     Cu3703   1.999       .  S
O3696      C3706   1.276       .  A
O3697     Cu3703   2.020       .  S
O3697      C3707   1.277       .  A
O3698     Cu3703   2.004       .  S
O3698      C3708   1.277       .  A
O3699     Cu3704   2.022       .  S
O3699      C3708   1.278       .  A
O3700     Cu3704   2.005       .  S
O3700      C3707   1.277       .  A
O3701     Cu3704   2.011       .  S
O3701      C3706   1.277       .  A
O3702     Cu3704   1.995       .  S
O3702      C3705   1.275       .  A
Cu3703    Cu3704   2.372       .  S
C3705      C4313   1.471       .  S
C3706      C4401   1.471       .  S
C3707      C4321   1.475       .  S
C3708      C4345   1.476       .  S
O3709     Cu3717   2.031       .  S
O3709      C3719   1.279       .  A
O3710     Cu3717   2.029       .  S
O3711     Cu3717   2.005       .  S
O3711      C3721   1.276   1_556  A
O3712     Cu3717   1.990       .  S
O3713     Cu3718   2.025       .  S
O3713      C3722   1.279       .  A
O3714     Cu3718   2.008       .  S
O3715     Cu3718   1.993       .  S
O3715      C3720   1.274       .  A
O3716     Cu3718   1.995       .  S
C3719      C4265   1.476       .  S
C3720      C4297   1.474       .  S
C3721      C4385   1.469       .  S
C3722      C4281   1.477       .  S
O3723     Cu3731   1.996       .  S
O3723      C3733   1.275       .  A
O3724     Cu3731   1.999       .  S
O3724      C3734   1.276       .  A
O3725     Cu3731   2.033       .  S
O3725      C3735   1.281       .  A
O3726     Cu3731   2.019       .  S
O3726      C3736   1.278       .  A
O3727     Cu3732   2.004       .  S
O3727      C3736   1.276       .  A
O3728     Cu3732   1.993       .  S
O3728      C3735   1.276       .  A
O3729     Cu3732   2.026       .  S
O3729      C3734   1.279       .  A
O3730     Cu3732   2.026       .  S
O3730      C3733   1.280       .  A
Cu3731    Cu3732   2.369       .  S
C3733      C4289   1.477       .  S
C3734      C4225   1.478       .  S
C3735      C4337   1.481       .  S
C3736      C4241   1.471       .  S
O3737     Cu3745   2.025       .  S
O3737      C3747   1.280       .  A
O3738     Cu3745   2.025       .  S
O3738      C3748   1.278       .  A
O3739     Cu3745   1.991       .  S
O3739      C3749   1.275       .  A
O3740     Cu3745   1.990       .  S
O3740      C3750   1.275       .  A
O3741     Cu3746   2.012       .  S
O3741      C3750   1.279       .  A
O3742     Cu3746   2.014       .  S
O3742      C3749   1.277       .  A
O3743     Cu3746   1.989       .  S
O3743      C3748   1.275       .  A
O3744     Cu3746   1.988       .  S
O3744      C3747   1.275       .  A
Cu3745    Cu3746   2.368       .  S
C3747      C4209   1.476       .  S
C3748      C4185   1.470       .  S
C3749      C4193   1.466       .  S
C3750      C4361   1.472       .  S
O3751     Cu3759   2.017       .  S
O3751      C3761   1.278       .  A
O3752     Cu3759   2.020   1_554  S
O3752      C3762   1.277   1_554  A
O3753     Cu3759   2.009       .  S
O3753      C3763   1.276       .  A
O3754     Cu3759   1.996       .  S
O3754      C3764   1.276       .  A
O3755     Cu3760   2.030       .  S
O3755      C3764   1.280       .  A
O3756     Cu3760   2.011       .  S
O3756      C3763   1.277       .  A
O3757     Cu3760   2.002       .  S
O3757      C3762   1.277       .  A
O3758     Cu3760   1.998       .  S
O3758      C3761   1.275       .  A
Cu3759    Cu3760   2.368       .  S
C3761      C4217   1.473       .  S
C3762      C4153   1.475       .  S
C3763      C4161   1.470       .  S
C3764      C4257   1.481       .  S
O3765     Cu3773   2.001       .  S
O3765      C3775   1.276       .  A
O3766     Cu3773   2.010       .  S
O3766      C3776   1.277       .  A
O3767     Cu3773   2.014       .  S
O3767      C3777   1.278       .  A
O3768     Cu3773   2.000       .  S
O3768      C3778   1.277       .  A
O3769      C3778   1.277       .  A
O3770      C3777   1.276       .  A
O3771      C3776   1.275       .  A
O3772     Cu3774   2.005   1_556  S
C3775      C4137   1.469       .  S
C3776      C4113   1.466       .  S
C3777      C4201   1.473       .  S
C3778      C4305   1.473       .  S
O3779     Cu3787   2.003       .  S
O3779      C3789   1.277       .  A
O3780     Cu3787   2.004       .  S
O3780      C3790   1.276       .  A
O3781     Cu3787   2.007       .  S
O3781      C3791   1.277       .  A
O3782     Cu3787   2.010       .  S
O3782      C3792   1.277   1_556  A
O3783     Cu3788   1.994       .  S
O3784     Cu3788   1.992       .  S
O3785     Cu3788   2.020       .  S
O3786     Cu3788   2.018       .  S
C3789      C4169   1.478       .  S
C3790      C4233   1.472       .  S
C3791      C4097   1.466       .  S
O3793     Cu3801   2.024       .  S
O3794     Cu3801   2.022       .  S
O3795     Cu3801   1.986       .  S
O3796     Cu3801   1.977       .  S
O3797     Cu3802   2.042       .  S
O3797      C3806   1.281       .  A
O3798     Cu3802   2.029       .  S
O3798      C3805   1.280       .  A
O3799     Cu3802   1.991       .  S
O3799      C3804   1.274       .  A
O3800     Cu3802   1.988       .  S
O3800      C3803   1.275       .  A
C3803      C4177   1.474       .  S
C3804      C4073   1.476       .  S
C3805      C4089   1.475       .  S
C3806      C4057   1.473       .  S
O3807     Cu3815   1.993       .  S
O3808     Cu3815   1.998       .  S
O3809     Cu3815   2.006       .  S
O3810     Cu3815   2.008       .  S
O3811     Cu3816   2.008       .  S
O3811      C3820   1.276       .  A
O3812     Cu3816   2.009       .  S
O3812      C3819   1.277       .  A
O3813     Cu3816   2.010       .  S
O3813      C3818   1.277       .  A
O3814     Cu3816   2.011       .  S
O3814      C3817   1.277       .  A
C3818      C4033   1.466       .  S
C3820      C4081   1.475       .  S
O3821     Cu3829   1.989       .  S
O3821      C3831   1.275       .  A
O3822     Cu3829   1.998       .  S
O3822      C3832   1.276       .  A
O3823     Cu3829   2.031       .  S
O3823      C3833   1.280       .  A
O3824     Cu3829   2.028       .  S
O3824      C3834   1.279       .  A
O3825     Cu3830   1.985       .  S
O3825      C3834   1.274       .  A
O3826     Cu3830   1.990       .  S
O3826      C3833   1.275       .  A
O3827     Cu3830   2.010       .  S
O3827      C3832   1.277       .  A
O3828     Cu3830   2.009       .  S
O3828      C3831   1.277       .  A
Cu3829    Cu3830   2.366       .  S
C3831      C3993   1.467       .  S
C3832      C4009   1.471       .  S
C3833      C4145   1.477       .  S
C3834      C4065   1.471       .  S
O3835     Cu3843   2.021       .  S
O3835      C3845   1.279       .  A
O3836     Cu3843   2.007       .  S
O3836      C3846   1.277       .  A
O3837     Cu3843   2.002       .  S
O3837      C3847   1.276       .  A
O3838     Cu3843   1.996       .  S
O3838      C3848   1.276       .  A
O3839     Cu3844   2.003       .  S
O3840     Cu3844   2.006       .  S
O3841     Cu3844   2.000       .  S
O3842     Cu3844   1.987       .  S
C3845      C3969   1.472       .  S
C3847      C4041   1.472       .  S
C3848      C4105   1.468       .  S
O3849     Cu3857   2.006       .  S
O3849      C3859   1.275       .  A
O3850     Cu3857   2.012       .  S
O3850      C3860   1.278       .  A
O3851     Cu3857   2.016       .  S
O3851      C3861   1.278       .  A
O3852     Cu3857   2.009       .  S
O3852      C3862   1.276       .  A
O3853     Cu3858   2.017       .  S
O3853      C3862   1.278       .  A
O3854     Cu3858   2.001       .  S
O3854      C3861   1.276       .  A
O3855     Cu3858   1.998       .  S
O3855      C3860   1.275       .  A
O3856     Cu3858   2.014       .  S
O3856      C3859   1.278       .  A
Cu3857    Cu3858   2.373       .  S
C3859      C4049   1.471       .  S
C3860      C3945   1.467       .  S
C3861      C4369   1.471       .  S
C3862      C3953   1.474       .  S
O3863     Cu3871   2.011       .  S
O3863      C3873   1.277       .  A
O3864     Cu3871   2.014       .  S
O3865     Cu3871   1.985       .  S
O3865      C3875   1.275       .  A
O3866     Cu3871   2.006       .  S
O3867     Cu3872   2.003       .  S
O3867      C3876   1.276   1_556  A
O3868     Cu3872   2.013       .  S
O3869     Cu3872   2.010       .  S
O3869      C3874   1.277   1_556  A
O3870     Cu3872   2.007       .  S
C3873      C4273   1.476       .  S
C3874      C3961   1.476   1_554  S
C3875      C3985   1.469       .  S
C3876      C3929   1.469       .  S
O3877     Cu3885   2.044       .  S
O3877      C3887   1.282       .  A
O3878     Cu3885   2.045       .  S
O3878      C3888   1.282       .  A
O3879     Cu3885   1.991       .  S
O3879      C3889   1.274       .  A
O3880     Cu3885   1.990       .  S
O3880      C3890   1.275       .  A
O3881     Cu3886   2.035       .  S
O3881      C3890   1.280       .  A
O3882     Cu3886   2.025       .  S
O3882      C3889   1.280       .  A
O3883     Cu3886   1.963       .  S
O3883      C3888   1.272       .  A
O3884     Cu3886   1.964       .  S
O3884      C3887   1.272       .  A
Cu3885    Cu3886   2.367       .  S
C3887      C3937   1.477       .  S
C3888      C4025   1.475       .  S
C3889      C3913   1.473       .  S
C3890      C4329   1.478       .  S
O3891     Cu3899   2.021       .  S
O3892     Cu3899   2.007       .  S
O3893     Cu3899   1.998       .  S
O3894     Cu3899   2.004       .  S
O3895     Cu3900   2.020       .  S
O3895      C3904   1.278       .  A
O3896     Cu3900   2.018       .  S
O3896      C3903   1.278   1_556  A
O3897     Cu3900   2.002       .  S
O3897      C3902   1.276   1_556  A
O3898     Cu3900   1.989       .  S
O3898      C3901   1.275   1_556  A
C3901      C3921   1.475       .  S
C3902      C3977   1.466       .  S
C3904      C4249   1.474       .  S
C3905      C3906   1.404       .  A
C3906      C3907   1.396       .  A
C3906      H3915   1.083       .  S
C3907      C3908   1.400       .  A
C3907      H3916   1.084       .  S
C3908      C3914   1.404       .  A
C3909      C3911   1.401       .  A
C3909      C3910   1.405       .  A
C3910      H3917   1.084   1_554  S
C3911      C3912   1.397       .  A
C3911      H3918   1.084   1_554  S
C3912      H3919   1.083       .  S
C3913      C3914   1.402       .  A
C3914      H3920   1.085       .  S
C3921      C3922   1.406   1_554  A
C3921      C3926   1.405       .  A
C3922      C3923   1.394       .  A
C3922      H3931   1.083       .  S
C3923      C3924   1.400       .  A
C3923      H3932   1.084       .  S
C3924      C3930   1.401       .  A
C3924      C3925   1.414   1_556  A
C3925      C3927   1.403       .  A
C3925      C3926   1.404       .  A
C3926      H3933   1.084       .  S
C3927      C3928   1.398       .  A
C3927      H3934   1.084       .  S
C3928      C3929   1.403       .  A
C3928      H3935   1.083       .  S
C3929      C3930   1.401   1_554  A
C3930      H3936   1.085       .  S
C3937      C3938   1.408       .  A
C3937      C3942   1.405       .  A
C3938      C3939   1.389       .  A
C3938      H3947   1.084       .  S
C3939      C3940   1.395       .  A
C3939      H3948   1.084       .  S
C3940      C3946   1.399       .  A
C3940      C3941   1.416       .  A
C3941      C3943   1.403       .  A
C3941      C3942   1.409       .  A
C3942      H3949   1.084       .  S
C3943      C3944   1.400       .  A
C3943      H3950   1.083       .  S
C3944      C3945   1.404       .  A
C3944      H3951   1.083       .  S
C3945      C3946   1.397       .  A
C3946      H3952   1.085       .  S
C3953      C3954   1.403       .  A
C3953      C3958   1.404       .  A
C3954      C3955   1.398       .  A
C3954      H3963   1.083       .  S
C3955      C3956   1.403       .  A
C3955      H3964   1.084       .  S
C3956      C3962   1.406       .  A
C3956      C3957   1.415       .  A
C3957      C3958   1.405       .  A
C3959      C3960   1.398       .  A
C3959      H3966   1.084       .  S
C3960      H3967   1.083       .  S
C3961      C3962   1.405       .  A
C3962      H3968   1.084       .  S
C3969      C3974   1.405       .  A
C3970      C3971   1.392       .  A
C3970      H3979   1.083       .  S
C3971      C3972   1.399       .  A
C3971      H3980   1.084       .  S
C3972      C3978   1.399   1_545  A
C3973      C3975   1.404       .  A
C3973      C3974   1.406       .  A
C3974      H3981   1.084       .  S
C3975      C3976   1.399   1_545  A
C3975      H3982   1.084       .  S
C3976      H3983   1.083       .  S
C3977      C3978   1.399   1_554  A
C3978      H3984   1.085       .  S
C3985      C3990   1.401       .  A
C3986      C3987   1.399       .  A
C3986      H3995   1.083       .  S
C3987      H3996   1.084       .  S
C3988      C3989   1.414       .  A
C3989      C3991   1.399       .  A
C3989      C3990   1.396       .  A
C3990      H3997   1.085       .  S
C3991      C3992   1.391       .  A
C3991      H3998   1.084       .  S
C3992      C3993   1.403       .  A
C3992      H3999   1.084       .  S
C3994      H4000   1.084   1_554  S
C4001      C4002   1.403       .  A
C4001      C4006   1.402       .  A
C4002      C4003   1.396       .  A
C4003      C4004   1.402       .  A
C4003      H4012   1.084       .  S
C4004      C4010   1.402       .  A
C4004      C4005   1.415       .  A
C4005      C4007   1.401       .  A
C4005      C4006   1.402       .  A
C4006      H4013   1.085       .  S
C4007      C4008   1.396       .  A
C4007      H4014   1.084       .  S
C4008      C4009   1.403       .  A
C4008      H4015   1.083       .  S
C4009      C4010   1.404       .  A
C4010      H4016   1.085       .  S
C4017      C4018   1.405       .  A
C4018      C4019   1.400       .  A
C4018      H4027   1.082       .  S
C4019      C4020   1.403       .  A
C4019      H4028   1.084       .  S
C4020      C4026   1.409   1_545  A
C4020      C4021   1.417       .  A
C4022      H4029   1.085       .  S
C4023      H4030   1.084       .  S
C4024      C4025   1.407       .  A
C4025      C4026   1.405       .  A
C4026      H4032   1.084       .  S
C4033      C4034   1.402       .  A
C4033      C4038   1.402       .  A
C4034      C4035   1.397       .  A
C4034      H4043   1.083       .  S
C4035      C4036   1.403       .  A
C4035      H4044   1.084       .  S
C4036      C4042   1.402       .  A
C4036      C4037   1.414       .  A
C4037      C4038   1.402       .  A
C4039      C4040   1.396       .  A
C4039      H4046   1.084       .  S
C4040      H4047   1.083       .  S
C4041      C4042   1.404       .  A
C4042      H4048   1.084       .  S
C4049      C4050   1.404       .  A
C4049      C4054   1.400       .  A
C4050      C4051   1.402       .  A
C4050      H4059   1.083       .  S
C4051      C4052   1.405       .  A
C4051      H4060   1.083       .  S
C4052      C4058   1.410       .  A
C4052      C4053   1.416       .  A
C4053      C4055   1.398       .  A
C4053      C4054   1.400       .  A
C4054      H4061   1.085       .  S
C4055      C4056   1.391       .  A
C4055      H4062   1.084       .  S
C4056      C4057   1.404       .  A
C4057      C4058   1.406       .  A
C4058      H4064   1.084       .  S
C4065      C4066   1.404       .  A
C4065      C4070   1.403       .  A
C4066      C4067   1.393       .  A
C4066      H4075   1.084       .  S
C4067      C4068   1.399       .  A
C4068      C4074   1.402       .  A
C4068      C4069   1.416       .  A
C4069      C4071   1.401       .  A
C4069      C4070   1.406       .  A
C4070      H4077   1.084       .  S
C4071      C4072   1.397       .  A
C4071      H4078   1.084       .  S
C4072      C4073   1.406       .  A
C4072      H4079   1.083       .  S
C4073      C4074   1.402       .  A
C4081      C4082   1.405       .  A
C4082      C4083   1.400       .  A
C4082      H4091   1.083       .  S
C4083      C4084   1.403       .  A
C4083      H4092   1.084       .  S
C4084      C4090   1.407       .  A
C4085      C4087   1.399   1_554  A
C4085      C4086   1.400   1_554  A
C4086      H4093   1.085       .  S
C4087      C4088   1.393       .  A
C4087      H4094   1.084       .  S
C4088      H4095   1.083       .  S
C4089      C4090   1.405       .  A
C4090      H4096   1.084       .  S
C4097      C4098   1.402       .  A
C4097      C4102   1.402       .  A
C4098      C4099   1.396       .  A
C4098      H4107   1.083       .  S
C4099      H4108   1.084       .  S
C4100      C4106   1.401   1_455  A
C4100      C4101   1.414       .  A
C4101      C4103   1.401       .  A
C4103      C4104   1.394   1_455  A
C4103      H4110   1.084       .  S
C4104      C4105   1.403       .  A
C4104      H4111   1.083       .  S
C4105      C4106   1.403       .  A
C4106      H4112   1.085       .  S
C4113      C4114   1.402       .  A
C4113      C4118   1.404       .  A
C4114      C4115   1.392       .  A
C4114      H4123   1.084       .  S
C4115      C4116   1.399       .  A
C4115      H4124   1.084       .  S
C4116      C4122   1.397       .  A
C4116      C4117   1.414       .  A
C4117      C4118   1.404       .  A
C4118      H4125   1.084       .  S
C4119      C4120   1.399       .  A
C4119      H4126   1.084       .  S
C4120      H4127   1.083       .  S
C4121      C4122   1.403       .  A
C4122      H4128   1.085       .  S
C4129      C4130   1.404       .  A
C4130      C4131   1.394       .  A
C4130      H4139   1.083       .  S
C4131      C4132   1.400       .  A
C4131      H4140   1.084       .  S
C4132      C4138   1.400       .  A
C4133      C4135   1.402       .  A
C4133      C4134   1.403       .  A
C4134      H4141   1.084       .  S
C4135      C4136   1.397       .  A
C4135      H4142   1.084       .  S
C4136      H4143   1.083       .  S
C4137      C4138   1.402       .  A
C4138      H4144   1.085       .  S
C4145      C4146   1.405       .  A
C4145      C4150   1.403       .  A
C4146      C4147   1.403   1_655  A
C4146      H4155   1.083       .  S
C4148      C4154   1.409       .  A
C4149      C4150   1.400   1_455  A
C4150      H4157   1.085       .  S
C4151      C4152   1.393       .  A
C4152      C4153   1.403       .  A
C4152      H4159   1.084       .  S
C4153      C4154   1.408   1_556  A
C4154      H4160   1.084       .  S
C4161      C4162   1.402       .  A
C4161      C4166   1.404       .  A
C4162      C4163   1.396       .  A
C4162      H4171   1.084       .  S
C4163      C4164   1.402       .  A
C4163      H4172   1.084       .  S
C4164      C4170   1.403       .  A
C4164      C4165   1.414       .  A
C4165      C4166   1.406       .  A
C4166      H4173   1.084   1_556  S
C4167      C4168   1.399       .  A
C4167      H4174   1.084       .  S
C4168      H4175   1.083       .  S
C4169      C4170   1.405       .  A
C4170      H4176   1.084       .  S
C4177      C4178   1.404       .  A
C4177      C4182   1.407       .  A
C4178      C4179   1.390       .  A
C4178      H4187   1.083       .  S
C4179      C4180   1.398       .  A
C4179      H4188   1.084       .  S
C4180      C4186   1.397       .  A
C4180      C4181   1.414       .  A
C4181      C4183   1.406       .  A
C4181      C4182   1.408       .  A
C4182      H4189   1.084       .  S
C4183      C4184   1.403       .  A
C4183      H4190   1.083       .  S
C4184      C4185   1.403       .  A
C4184      H4191   1.083       .  S
C4185      C4186   1.400       .  A
C4186      H4192   1.085       .  S
C4193      C4194   1.402       .  A
C4193      C4198   1.400       .  A
C4194      C4195   1.399       .  A
C4194      H4203   1.083       .  S
C4195      C4196   1.404       .  A
C4195      H4204   1.084       .  S
C4196      C4202   1.404       .  A
C4196      C4197   1.414       .  A
C4197      C4198   1.398       .  A
C4199      C4200   1.392       .  A
C4199      H4206   1.084   1_554  S
C4200      H4207   1.083   1_554  S
C4201      C4202   1.406       .  A
C4202      H4208   1.084       .  S
C4209      C4210   1.406       .  A
C4209      C4214   1.404       .  A
C4210      C4211   1.395       .  A
C4210      H4219   1.083       .  S
C4211      C4212   1.399       .  A
C4212      C4218   1.403       .  A
C4212      C4213   1.415       .  A
C4213      C4215   1.401       .  A
C4213      C4214   1.405       .  A
C4215      C4216   1.397       .  A
C4216      C4217   1.405       .  A
C4217      C4218   1.402       .  A
C4218      H4224   1.085       .  S
C4225      C4226   1.405       .  A
C4225      C4230   1.407       .  A
C4226      C4227   1.395   1_565  A
C4226      H4235   1.083       .  S
C4227      C4228   1.400       .  A
C4227      H4236   1.084       .  S
C4228      C4234   1.403       .  A
C4228      C4229   1.415       .  A
C4229      C4231   1.404   1_556  A
C4229      C4230   1.408   1_545  A
C4230      H4237   1.084       .  S
C4231      C4232   1.401       .  A
C4231      H4238   1.084       .  S
C4232      C4233   1.403   1_554  A
C4232      H4239   1.083       .  S
C4233      C4234   1.402       .  A
C4234      H4240   1.085       .  S
C4241      C4242   1.403       .  A
C4241      C4246   1.402       .  A
C4242      C4243   1.401       .  A
C4243      C4244   1.404       .  A
C4244      C4250   1.407   1_455  A
C4244      C4245   1.415       .  A
C4245      C4246   1.402       .  A
C4246      H4253   1.085       .  S
C4247      H4254   1.084       .  S
C4248      C4249   1.403   1_554  A
C4249      C4250   1.406       .  A
C4250      H4256   1.084       .  S
C4257      C4258   1.405       .  A
C4257      C4262   1.405       .  A
C4258      C4259   1.403       .  A
C4258      H4267   1.083       .  S
C4259      C4260   1.406       .  A
C4259      H4268   1.084       .  S
C4260      C4266   1.410       .  A
C4260      C4261   1.414       .  A
C4261      C4262   1.401       .  A
C4263      C4264   1.393       .  A
C4263      H4270   1.084       .  S
C4264      H4271   1.084       .  S
C4265      C4266   1.408       .  A
C4266      H4272   1.084       .  S
C4273      C4274   1.405       .  A
C4274      C4275   1.399   1_655  A
C4274      H4283   1.083       .  S
C4275      C4276   1.403       .  A
C4275      H4284   1.084       .  S
C4276      C4282   1.407       .  A
C4277      C4279   1.399       .  A
C4277      C4278   1.402   1_455  A
C4278      H4285   1.085       .  S
C4279      C4280   1.393       .  A
C4279      H4286   1.084       .  S
C4280      H4287   1.083       .  S
C4281      C4282   1.406       .  A
C4282      H4288   1.084       .  S
C4289      C4290   1.406       .  A
C4289      C4294   1.404       .  A
C4290      C4291   1.397       .  A
C4290      H4299   1.083       .  S
C4291      C4292   1.401       .  A
C4291      H4300   1.084       .  S
C4292      C4298   1.406       .  A
C4292      C4293   1.416       .  A
C4293      C4295   1.401       .  A
C4293      C4294   1.406       .  A
C4294      H4301   1.084       .  S
C4295      C4296   1.397       .  A
C4295      H4302   1.084       .  S
C4296      C4297   1.405       .  A
C4296      H4303   1.083       .  S
C4297      C4298   1.403       .  A
C4298      H4304   1.084       .  S
C4305      C4306   1.404       .  A
C4305      C4310   1.405       .  A
C4306      C4307   1.396       .  A
C4306      H4315   1.083       .  S
C4307      C4308   1.402       .  A
C4307      H4316   1.084       .  S
C4308      C4314   1.401   1_545  A
C4308      C4309   1.414       .  A
C4309      C4311   1.403       .  A
C4309      C4310   1.402       .  A
C4310      H4317   1.084       .  S
C4311      C4312   1.397   1_545  A
C4311      H4318   1.084       .  S
C4312      C4313   1.403       .  A
C4312      H4319   1.083       .  S
C4313      C4314   1.404       .  A
C4314      H4320   1.085       .  S
C4321      C4322   1.403       .  A
C4321      C4326   1.408       .  A
C4322      C4323   1.394       .  A
C4322      H4331   1.084       .  S
C4323      C4324   1.401       .  A
C4323      H4332   1.084       .  S
C4324      C4330   1.401       .  A
C4324      C4325   1.414       .  A
C4325      C4327   1.406       .  A
C4325      C4326   1.409       .  A
C4326      H4333   1.084       .  S
C4327      C4328   1.403       .  A
C4327      H4334   1.084   1_556  S
C4328      C4329   1.404       .  A
C4328      H4335   1.083   1_556  S
C4329      C4330   1.405       .  A
C4330      H4336   1.085       .  S
C4337      C4338   1.405       .  A
C4337      C4342   1.406       .  A
C4338      C4339   1.402       .  A
C4339      C4340   1.405       .  A
C4340      C4346   1.409       .  A
C4340      C4341   1.413       .  A
C4341      C4343   1.401       .  A
C4341      C4342   1.402       .  A
C4342      H4349   1.085       .  S
C4343      C4344   1.395       .  A
C4343      H4350   1.084       .  S
C4344      C4345   1.403       .  A
C4344      H4351   1.084       .  S
C4345      C4346   1.407       .  A
C4346      H4352   1.084       .  S
C4353      C4358   1.401   1_554  A
C4354      C4355   1.395       .  A
C4354      H4363   1.083       .  S
C4355      C4356   1.401       .  A
C4355      H4364   1.084       .  S
C4356      C4362   1.401       .  A
C4356      C4357   1.415       .  A
C4358      H4365   1.085       .  S
C4359      H4366   1.084       .  S
C4360      C4361   1.405       .  A
C4361      C4362   1.403       .  A
C4362      H4368   1.084       .  S
C4369      C4370   1.402       .  A
C4369      C4374   1.406       .  A
C4370      C4371   1.397       .  A
C4370      H4379   1.083       .  S
C4371      C4372   1.403       .  A
C4371      H4380   1.084       .  S
C4372      C4378   1.401       .  A
C4372      C4373   1.414       .  A
C4373      C4374   1.404       .  A
C4375      C4376   1.400       .  A
C4375      H4382   1.084       .  S
C4376      C4377   1.402   1_556  A
C4376      H4383   1.083       .  S
C4378      H4384   1.085       .  S
C4385      C4390   1.404   1_554  A
C4386      C4387   1.395       .  A
C4386      H4395   1.084       .  S
C4387      C4388   1.402       .  A
C4387      H4396   1.084       .  S
C4388      C4394   1.401       .  A
C4389      C4391   1.403       .  A
C4389      C4390   1.404       .  A
C4390      H4397   1.084       .  S
C4391      C4392   1.399       .  A
C4391      H4398   1.084       .  S
C4392      C4393   1.404       .  A
C4392      H4399   1.083       .  S
C4394      H4400   1.085       .  S
C4401      C4402   1.404       .  A
C4401      C4406   1.402       .  A
C4402      C4403   1.399       .  A
C4402      H4411   1.083       .  S
C4403      C4404   1.403       .  A
C4403      H4412   1.084       .  S
C4404      C4410   1.405       .  A
C4404      C4405   1.415       .  A
C4405      C4407   1.399       .  A
C4405      C4406   1.400       .  A
C4406      H4413   1.085       .  S
C4407      C4408   1.393   1_556  A
C4407      H4414   1.084   1_556  S
C4408      C4409   1.404   1_554  A
C4408      H4415   1.083       .  S
C4409      C4410   1.405       .  A
C4410      H4416   1.084       .  S
