geometry optimzed in LAMMPS
_audit_creation_date              2020-11-30 
_audit_creation_method            'lammps2cif' 
_symmetry_space_group_name_H-M    'P1' 
_symmetry_Int_Tables_number       1 
_symmetry_cell_setting            triclinic 
loop_ 
_symmetry_equiv_pos_as_xyz 
  x,y,z 
_cell_length_a                    50.93881652879111 
_cell_length_b                    50.925846535343446 
_cell_length_c                    50.92649591842512 
_cell_angle_alpha                 89.95118398127659 
_cell_angle_beta                  90.01447256180738 
_cell_angle_gamma                 89.98877529837078 
loop_ 
_atom_site_label 
_atom_site_type_symbol 
_atom_site_fract_x 
_atom_site_fract_y 
_atom_site_fract_z 
_atom_site_charge 
O1          O  0.02816812  0.50369825  0.84396983    -0.72900
O2          O  0.03912513  0.46558503  0.90767260    -0.73120
O3          O  0.06917113  0.48023603  0.86727845    -0.72980
O4          O  0.99819022  0.48988806  0.88530326    -0.72990
O5          O  0.98852455  0.45158701  0.86915640    -0.72950
O6          O  0.05907327  0.44582479  0.84422645    -0.72970
O7          O  0.03278519  0.42917428  0.88642182    -0.72910
O8          O  0.01501377  0.46772110  0.82529028    -0.73100
V9          V  0.03341228  0.48421963  0.87561307     1.35240
V10         V  0.02388083  0.44931935  0.85651766     1.35170
C11         C  0.01994335  0.49198467  0.82358679     0.76340
C12         C  0.03856719  0.44067161  0.90756161     0.76390
C13         C  0.07637194  0.46155544  0.85277223     0.76260
C14         C  0.98170100  0.47177204  0.88203456     0.76220
O15         O  0.07194683  0.36361039  0.00621496    -0.72900
O16         O  0.08416816  0.34067846  0.07689938    -0.73120
O17         O  0.05892298  0.32057181  0.03533201    -0.72980
O18         O  0.09794266  0.38241448  0.04760326    -0.72990
O19         O  0.06305701  0.40195569  0.06256245    -0.72950
O20         O  0.02287406  0.34069517  0.04590032    -0.72970
O21         O  0.04746714  0.35911436  0.08832336    -0.72910
O22         O  0.03773114  0.38496760  0.02011824    -0.73100
V23         V  0.07751109  0.35207442  0.04166837     1.35240
V24         V  0.04339168  0.37118959  0.05384935     1.35170
C25         C  0.05359203  0.37990630  0.00186351     0.76340
C26         C  0.06771725  0.34649721  0.09469174     0.76390
C27         C  0.03446842  0.31968269  0.03913839     0.76260
C28         C  0.08738713  0.40250390  0.05741336     0.76220
O29         O  0.85097368  0.54213757  0.95950799    -0.72900
O30         O  0.82849470  0.47117030  0.94859517    -0.73120
O31         O  0.80820747  0.51310220  0.97319575    -0.72980
O32         O  0.86983442  0.50041770  0.93410816    -0.72990
O33         O  0.88966600  0.48606487  0.96906693    -0.72950
O34         O  0.82839636  0.50302458  0.00936736    -0.72970
O35         O  0.84718970  0.46037256  0.98537709    -0.72910
O36         O  0.87220525  0.52888302  0.99403089    -0.73100
V37         V  0.83963241  0.50656422  0.95459985     1.35240
V38         V  0.85890701  0.49497560  0.98883968     1.35170
C39         C  0.86697440  0.54696991  0.97799704     0.76340
C40         C  0.83464038  0.45363072  0.96523837     0.76390
C41         C  0.80737043  0.50969035  0.99771632     0.76260
C42         C  0.88998322  0.49056645  0.94455104     0.76220
O43         O  0.16205338  0.50212617  0.09112370    -0.72900
O44         O  0.18774562  0.57217783  0.09898346    -0.73120
O45         O  0.14475027  0.54611459  0.11420378    -0.72980
O46         O  0.20642679  0.52840909  0.07635371    -0.72990
O47         O  0.18815414  0.54152127  0.04012341    -0.72950
O48         O  0.12464860  0.55483365  0.07762183    -0.72970
O49         O  0.16647153  0.58325726  0.06371388    -0.72910
O50         O  0.14556380  0.51318073  0.05336425    -0.73100
V51         V  0.17498671  0.53728001  0.09441569     1.35240
V52         V  0.15664315  0.54791803  0.05937790     1.35170
C53         C  0.14880721  0.49603950  0.07092909     0.76340
C54         C  0.18047196  0.58984385  0.08301290     0.76390
C55         C  0.12412262  0.55328326  0.10247758     0.76260
C56         C  0.20831669  0.53304913  0.05203253     0.76220
O57         O  0.98445946  0.53502010  0.19956019    -0.72900
O58         O  0.96923020  0.57486122  0.13759655    -0.73120
O59         O  0.01166952  0.55102448  0.15654818    -0.72980
O60         O  0.94178342  0.55822961  0.17913534    -0.72990
O61         O  0.95185011  0.59352381  0.20082298    -0.72950
O62         O  0.02249647  0.58744174  0.17597929    -0.72970
O63         O  0.97826570  0.61068146  0.15889911    -0.72910
O64         O  0.99576051  0.57109379  0.21921112    -0.73100
V65         V  0.97708834  0.55540381  0.16872163     1.35240
V66         V  0.98702584  0.58991958  0.18841566     1.35170
C67         C  0.99197308  0.54662807  0.22030768     0.76340
C68         C  0.97083925  0.59972035  0.13799658     0.76390
C69         C  0.02854297  0.56854344  0.16093129     0.76260
C70         C  0.93464111  0.57717565  0.19329945     0.76220
O71         O  0.93771152  0.67879850  0.04070033    -0.72900
O72         O  0.93047171  0.70613003  0.97100232    -0.73120
O73         O  0.91467009  0.66287046  0.99612588    -0.72980
O74         O  0.95282179  0.72356776  0.01546297    -0.72990
O75         O  0.98917550  0.70511419  0.00301146    -0.72950
O76         O  0.95111083  0.64275337  0.98663732    -0.72970
O77         O  0.96609482  0.68546849  0.95997069    -0.72910
O78         O  0.97474372  0.66111364  0.02901781    -0.73100
V79         V  0.93468603  0.69260994  0.00573013     1.35240
V80         V  0.96963533  0.67414808  0.99492083     1.35170
C81         C  0.95701549  0.66393727  0.04599081     0.76340
C82         C  0.94672699  0.69935720  0.95339666     0.76390
C83         C  0.92633266  0.64237127  0.98868772     0.76260
C84         C  0.97724374  0.72521109  0.01161229     0.76220
O85         O  0.82838412  0.54746064  0.53657280    -0.72900
O86         O  0.89073591  0.56117473  0.57610467    -0.73120
O87         O  0.87128114  0.51984857  0.55064587    -0.72980
O88         O  0.84883354  0.58926273  0.56130975    -0.72990
O89         O  0.82672870  0.57739525  0.59578356    -0.72950
O90         O  0.85391968  0.50776143  0.58763772    -0.72970
O91         O  0.86961718  0.55171569  0.61193012    -0.72910
O92         O  0.80966070  0.53340620  0.57219653    -0.73100
V93         V  0.85933700  0.55417394  0.55679961     1.35240
V94         V  0.84024330  0.54269625  0.59114388     1.35170
C95         C  0.80821981  0.53821265  0.54791359     0.76340
C96         C  0.89054961  0.55899523  0.60092885     0.76390
C97         C  0.86809839  0.50236064  0.56785824     0.76260
C98         C  0.83420156  0.59540310  0.58026061     0.76220
O99         O  0.99652234  0.34798704  0.54794017    -0.72900
O100        O  0.95571639  0.40968087  0.56071232    -0.73120
O101        O  0.97166061  0.36866745  0.58952100    -0.72980
O102        O  0.98095234  0.39030241  0.51954383    -0.72990
O103        O  0.94482890  0.37076264  0.50800643    -0.72950
O104        O  0.93720502  0.34611055  0.57846551    -0.72970
O105        O  0.92029890  0.38777974  0.55128993    -0.72910
O106        O  0.96114618  0.32782941  0.53536902    -0.73100
V107        V  0.97560672  0.37862246  0.55415608     1.35240
V108        V  0.94162598  0.35841705  0.54339481     1.35170
C109        C  0.98548848  0.32710164  0.54001547     0.76340
C110        C  0.93098717  0.40898317  0.55820080     0.76390
C111        C  0.95282432  0.35407565  0.59612685     0.76260
C112        C  0.96369381  0.38599939  0.50235519     0.76220
O113        O  0.98368003  0.50643772  0.34132228    -0.72900
O114        O  0.97261124  0.47011415  0.40601352    -0.73120
O115        O  0.01382055  0.49248235  0.38261678    -0.72980
O116        O  0.94217996  0.48475968  0.36564056    -0.72990
O117        O  0.95119709  0.44996470  0.34271194    -0.72950
O118        O  0.02176098  0.45325846  0.36779888    -0.72970
O119        O  0.97676351  0.43306041  0.38531066    -0.72910
O120        O  0.99605685  0.46974252  0.32351744    -0.73100
V121        V  0.97825746  0.48783204  0.37345744     1.35240
V122        V  0.98642143  0.45225356  0.35503655     1.35170
C123        C  0.99169828  0.49407725  0.32124477     0.76340
C124        C  0.97234745  0.44520916  0.40641047     0.76390
C125        C  0.02941917  0.47343683  0.38018894     0.76260
C126        C  0.93438629  0.46623684  0.35120410     0.76220
O127        O  0.18193361  0.49866542  0.51050744    -0.72900
O128        O  0.12077334  0.48260152  0.46917800    -0.73120
O129        O  0.16339804  0.45656790  0.48501284    -0.72980
O130        O  0.13759147  0.52472023  0.49564533    -0.72990
O131        O  0.15896116  0.53917328  0.46168696    -0.72950
O132        O  0.18244711  0.46871989  0.44885586    -0.72970
O133        O  0.14089904  0.49801695  0.43487177    -0.72910
O134        O  0.20201708  0.51020920  0.47475092    -0.73100
V135        V  0.15140299  0.49104565  0.48951030     1.35240
V136        V  0.17080881  0.50384898  0.45580082     1.35170
C137        C  0.20294438  0.50595581  0.49912635     0.76340
C138        C  0.12063458  0.48792518  0.44480274     0.76390
C139        C  0.17629497  0.45057126  0.46484782     0.76260
C140        C  0.14264101  0.54327455  0.48008689     0.76220
O141        O  0.02728520  0.53593855  0.70261952    -0.72900
O142        O  0.04500205  0.57815029  0.64275121    -0.73120
O143        O  0.07025802  0.56078642  0.68519492    -0.72980
O144        O  0.00207592  0.55268526  0.65849421    -0.72990
O145        O  0.98833361  0.58622614  0.68098185    -0.72950
O146        O  0.05890644  0.59704075  0.70454961    -0.72970
O147        O  0.02989443  0.61237492  0.66328583    -0.72910
O148        O  0.01700776  0.57152467  0.72366782    -0.73100
V149        V  0.03577163  0.55744624  0.67277833     1.35240
V150        V  0.02371367  0.59103217  0.69286523     1.35170
C151        C  0.02039705  0.54699324  0.72389958     0.76340
C152        C  0.03987083  0.60252354  0.64293656     0.76390
C153        C  0.07667313  0.58073824  0.69824089     0.76260
C154        C  0.98397651  0.56864291  0.66389540     0.76220
O155        O  0.07373860  0.67810158  0.54346603    -0.72900
O156        O  0.07839265  0.70174517  0.47256228    -0.73120
O157        O  0.05766993  0.72176196  0.51668689    -0.72980
O158        O  0.09487982  0.65976351  0.49910237    -0.72990
O159        O  0.05800449  0.63891871  0.49419888    -0.72950
O160        O  0.02115892  0.70361171  0.50428870    -0.72970
O161        O  0.04357778  0.67892849  0.46332484    -0.72910
O162        O  0.03486788  0.66270448  0.53494915    -0.73100
V163        V  0.07540720  0.69013188  0.50792757     1.35240
V164        V  0.04002144  0.67148012  0.49940096     1.35170
C165        C  0.05348036  0.66574417  0.55095488     0.76340
C166        C  0.06243436  0.69295817  0.45561363     0.76390
C167        C  0.03334639  0.72385505  0.51218803     0.76260
C168        C  0.08292516  0.63864805  0.49421276     0.76220
O169        O  0.52778040  0.53299422  0.84106125    -0.72900
O170        O  0.54309787  0.57049042  0.90430408    -0.73120
O171        O  0.50074318  0.54672791  0.88502056    -0.72980
O172        O  0.57030682  0.55626077  0.86183861    -0.72990
O173        O  0.55968967  0.59375559  0.84445741    -0.72950
O174        O  0.48830034  0.58196299  0.86432022    -0.72970
O175        O  0.52915684  0.60629149  0.88562698    -0.72910
O176        O  0.51851386  0.56995055  0.82190457    -0.73100
V177        V  0.53515784  0.55220546  0.87253872     1.35240
V178        V  0.52411020  0.58721837  0.85429811     1.35170
C179        C  0.52160131  0.54542542  0.82032347     0.76340
C180        C  0.53795157  0.59478703  0.90569639     0.76390
C181        C  0.48307145  0.56327252  0.87990312     0.76260
C182        C  0.57720559  0.57701668  0.85028498     0.76220
O183        O  0.32903055  0.53876870  0.00830602    -0.72900
O184        O  0.39000110  0.55394994  0.96703402    -0.73120
O185        O  0.34817102  0.58096165  0.98352122    -0.72980
O186        O  0.37228493  0.51201415  0.99248825    -0.72990
O187        O  0.35149203  0.49926900  0.95747029    -0.72950
O188        O  0.32729406  0.56996390  0.94802484    -0.72970
O189        O  0.36890669  0.54188069  0.93202531    -0.72910
O190        O  0.30854892  0.52731417  0.97273935    -0.73100
V191        V  0.35934627  0.54609123  0.98720824     1.35240
V192        V  0.33934191  0.53472352  0.95331726     1.35170
C193        C  0.30797926  0.53138231  0.99718351     0.76340
C194        C  0.38972973  0.55038868  0.94236825     0.76390
C195        C  0.33435863  0.58760480  0.96414017     0.76260
C196        C  0.36746290  0.49432171  0.97595801     0.76220
O197        O  0.43958190  0.36250761  0.04365904    -0.72900
O198        O  0.43290970  0.33738707  0.97318997    -0.73120
O199        O  0.45503984  0.31862519  0.01724901    -0.72980
O200        O  0.41679521  0.37974037  0.99940279    -0.72990
O201        O  0.45320094  0.40058990  0.99182474    -0.72950
O202        O  0.49121127  0.33708195  0.00428305    -0.72970
O203        O  0.46778812  0.35958676  0.96276381    -0.72910
O204        O  0.47753274  0.37897701  0.03329161    -0.73100
V205        V  0.43683025  0.34982792  0.00831801     1.35240
V206        V  0.47177796  0.36863678  0.99831378     1.35170
C207        C  0.45985167  0.37542590  0.05020880     0.76340
C208        C  0.44878140  0.34542753  0.95575999     0.76390
C209        C  0.47934230  0.31685281  0.01267807     0.76260
C210        C  0.42829710  0.40060195  0.99269798     0.76220
O211        O  0.49005502  0.50019030  0.20517637    -0.72900
O212        O  0.47086015  0.45956934  0.14492524    -0.73120
O213        O  0.44670365  0.47634011  0.18822706    -0.72980
O214        O  0.51441333  0.48403757  0.16042677    -0.72990
O215        O  0.52832516  0.45062192  0.18308955    -0.72950
O216        O  0.45765419  0.43888559  0.20546278    -0.72970
O217        O  0.48696442  0.42490760  0.16399272    -0.72910
O218        O  0.49905685  0.46403995  0.22592051    -0.73100
V219        V  0.48090733  0.47946137  0.17515268     1.35240
V220        V  0.49286269  0.44533836  0.19438397     1.35170
C221        C  0.49608798  0.48864868  0.22646179     0.76340
C222        C  0.47626675  0.43528541  0.14422298     0.76390
C223        C  0.44013899  0.45585875  0.20036713     0.76260
C224        C  0.53260459  0.46824131  0.16600910     0.76220
O225        O  0.52833314  0.64781180  0.01843417    -0.72900
O226        O  0.53560711  0.66772155  0.08943404    -0.73120
O227        O  0.51143751  0.68869289  0.04725977    -0.72980
O228        O  0.55299717  0.62762623  0.06033238    -0.72990
O229        O  0.58820827  0.65108934  0.05492988    -0.72950
O230        O  0.54655064  0.70866691  0.03365452    -0.72970
O231        O  0.56833767  0.69300624  0.07903655    -0.72910
O232        O  0.56614195  0.66548224  0.00951709    -0.73100
V233        V  0.53266364  0.65840175  0.05366814     1.35240
V234        V  0.56657756  0.67927186  0.04435776     1.35170
C235        C  0.54668947  0.65178018  0.00230648     0.76340
C236        C  0.55318551  0.68369914  0.09643254     0.76390
C237        C  0.52213809  0.70917544  0.03797885     0.76260
C238        C  0.57784418  0.62933316  0.06053248     0.76220
O239        O  0.68973135  0.46607340  0.09874641    -0.72900
O240        O  0.66082137  0.53508130  0.09152881    -0.73120
O241        O  0.64622921  0.49042531  0.11506453    -0.72980
O242        O  0.70591350  0.51071698  0.07592024    -0.72990
O243        O  0.68721520  0.49784385  0.03984726    -0.72950
O244        O  0.62587592  0.47977310  0.07913451    -0.72970
O245        O  0.64270301  0.52268143  0.05494280    -0.72910
O246        O  0.66897794  0.45452992  0.06332768    -0.73100
V247        V  0.67543244  0.50048747  0.09454109     1.35240
V248        V  0.65670980  0.48903984  0.05994218     1.35170
C249        C  0.68318538  0.44832797  0.08255188     0.76340
C250        C  0.64537534  0.53978757  0.07254459     0.76390
C251        C  0.62581576  0.48194553  0.10394949     0.76260
C252        C  0.70739601  0.50664370  0.05152361     0.76220
O253        O  0.44033000  0.67574452  0.50751610    -0.72900
O254        O  0.43305710  0.69895486  0.57854401    -0.73120
O255        O  0.45650760  0.71842585  0.53565952    -0.72980
O256        O  0.41631652  0.65764798  0.55069398    -0.72990
O257        O  0.45185917  0.63617872  0.56037437    -0.72950
O258        O  0.49227079  0.69811189  0.54682142    -0.72970
O259        O  0.46826045  0.67717388  0.58878416    -0.72910
O260        O  0.47633574  0.65561395  0.51852069    -0.73100
V261        V  0.43733257  0.68739689  0.54317271     1.35240
V262        V  0.47157375  0.66730171  0.55330654     1.35170
C263        C  0.45899217  0.66039030  0.50154360     0.76340
C264        C  0.44917361  0.69120319  0.59588034     0.76390
C265        C  0.48093687  0.71922417  0.53988171     0.76260
C266        C  0.42706139  0.63655253  0.55802330     0.76220
O267        O  0.52360023  0.58353201  0.36927223    -0.72900
O268        O  0.45289793  0.59331054  0.34564533    -0.73120
O269        O  0.48104443  0.60880164  0.38728234    -0.72980
O270        O  0.49548163  0.56881511  0.32637736    -0.72990
O271        O  0.48438724  0.53297827  0.34662060    -0.72950
O272        O  0.46874912  0.57360266  0.40795394    -0.72970
O273        O  0.44195893  0.55741111  0.36590955    -0.72910
O274        O  0.51086506  0.54844584  0.38998281    -0.73100
V275        V  0.48812296  0.58786257  0.35742662     1.35240
V276        V  0.47680826  0.55374148  0.37710130     1.35170
C277        C  0.52863670  0.56485242  0.38498519     0.76340
C278        C  0.43528631  0.57711144  0.35257163     0.76390
C279        C  0.47228903  0.59828344  0.40793675     0.76260
C280        C  0.49190181  0.54429919  0.32569760     0.76220
O281        O  0.66450456  0.49977341  0.45374265    -0.72900
O282        O  0.68618507  0.57134753  0.44771890    -0.73120
O283        O  0.70713781  0.52823894  0.46943184    -0.72980
O284        O  0.64498363  0.54335019  0.43150828    -0.72990
O285        O  0.62445182  0.55126284  0.46804901    -0.72950
O286        O  0.68763801  0.53821224  0.50599814    -0.72970
O287        O  0.66512880  0.58024373  0.48371151    -0.72910
O288        O  0.64556007  0.50934938  0.49077960    -0.73100
V289        V  0.67544221  0.53569903  0.45138044     1.35240
V290        V  0.65622550  0.54447996  0.48649370     1.35170
C291        C  0.65003049  0.49297424  0.47282140     0.76340
C292        C  0.67836197  0.58811149  0.46435956     0.76390
C293        C  0.70847271  0.53189724  0.49392406     0.76260
C294        C  0.62416339  0.54986069  0.44321267     0.76220
O295        O  0.57971653  0.36052530  0.54050636    -0.72900
O296        O  0.58324680  0.33589553  0.46984797    -0.73120
O297        O  0.60117008  0.37783019  0.49589243    -0.72980
O298        O  0.56237023  0.31718562  0.51436070    -0.72990
O299        O  0.52592168  0.33690616  0.50439587    -0.72950
O300        O  0.56503492  0.39896989  0.48786648    -0.72970
O301        O  0.54754895  0.35752608  0.46103025    -0.72910
O302        O  0.54270343  0.37970240  0.53119169    -0.73100
V303        V  0.58084399  0.34814138  0.50509571     1.35240
V304        V  0.54593773  0.36778119  0.49640866     1.35170
C305        C  0.56094207  0.37535737  0.54727902     0.76340
C306        C  0.56630653  0.34346568  0.45324945     0.76390
C307        C  0.58994046  0.39874871  0.48881590     0.76260
C308        C  0.53776852  0.31612031  0.51146214     0.76220
O309        O  0.52872417  0.50458300  0.69844727    -0.72900
O310        O  0.54641176  0.46363011  0.63778364    -0.73120
O311        O  0.50328335  0.48844464  0.65431294    -0.72980
O312        O  0.57178951  0.48067335  0.68022998    -0.72990
O313        O  0.56090613  0.44473596  0.70045594    -0.72950
O314        O  0.49045461  0.45351864  0.67519547    -0.72970
O315        O  0.53363488  0.42863696  0.65852405    -0.72910
O316        O  0.51767975  0.46865768  0.71855782    -0.73100
V317        V  0.53716115  0.48373129  0.66817656     1.35240
V318        V  0.52577930  0.44965199  0.68787243     1.35170
C319        C  0.52137983  0.49311019  0.71937070     0.76340
C320        C  0.54314377  0.43891201  0.63813534     0.76390
C321        C  0.48552619  0.47192504  0.65909015     0.76260
C322        C  0.57844863  0.46119716  0.69388767     0.76220
O323        O  0.35043945  0.53673192  0.58990853    -0.72900
O324        O  0.32694107  0.46579653  0.59708962    -0.73120
O325        O  0.36924654  0.49281162  0.61219250    -0.72980
O326        O  0.30663749  0.50932916  0.57549606    -0.72990
O327        O  0.32493153  0.49836643  0.53860973    -0.72950
O328        O  0.38892676  0.48415575  0.57536280    -0.72970
O329        O  0.34711576  0.45595248  0.56084007    -0.72910
O330        O  0.36825049  0.52626946  0.55256406    -0.73100
V331        V  0.33856473  0.50111687  0.59287792     1.35240
V332        V  0.35678005  0.49148102  0.55747318     1.35170
C333        C  0.36476286  0.54291823  0.57049672     0.76340
C334        C  0.33406109  0.44864145  0.58052406     0.76390
C335        C  0.38974707  0.48580652  0.60020080     0.76260
C336        C  0.30455723  0.50552779  0.55108046     0.76220
O337        O  0.58065615  0.83989327  0.58449210    -0.72900
O338        O  0.57642985  0.86526945  0.51417143    -0.73120
O339        O  0.59784288  0.88230092  0.55890813    -0.72980
O340        O  0.55968558  0.82124140  0.53991748    -0.72990
O341        O  0.52346213  0.83968215  0.55271534    -0.72950
O342        O  0.56128751  0.90357748  0.56429043    -0.72970
O343        O  0.53778593  0.88107015  0.52304025    -0.72910
O344        O  0.54621557  0.86309459  0.59420871    -0.73100
V345        V  0.57790704  0.85240849  0.54941664     1.35240
V346        V  0.54280868  0.87141758  0.55834997     1.35170
C347        C  0.56474309  0.84846312  0.60158342     0.76340
C348        C  0.55632332  0.87804200  0.50697399     0.76390
C349        C  0.58621460  0.90351832  0.56418637     0.76260
C350        C  0.53532402  0.81942493  0.54434060     0.76220
O351        O  0.49030788  0.95422500  0.37520641    -0.72900
O352        O  0.56131522  0.94358221  0.35295410    -0.73120
O353        O  0.53207924  0.92948513  0.39443967    -0.72980
O354        O  0.51928059  0.96746209  0.33234234    -0.72990
O355        O  0.52917353  0.00403618  0.35184726    -0.72950
O356        O  0.54595172  0.96480143  0.41396258    -0.72970
O357        O  0.57194517  0.98053931  0.37138428    -0.72910
O358        O  0.50315581  0.98918030  0.39598409    -0.73100
V359        V  0.52590720  0.94945819  0.36399148     1.35240
V360        V  0.53718709  0.98404480  0.38281626     1.35170
C361        C  0.48535462  0.97273713  0.39111231     0.76340
C362        C  0.57875733  0.96033458  0.35896990     0.76390
C363        C  0.54142445  0.94031130  0.41458287     0.76260
C364        C  0.52260491  0.99194375  0.33103650     0.76220
O365        O  0.49500819  0.19503008  0.50688618    -0.72900
O366        O  0.45539836  0.13250139  0.49401211    -0.73120
O367        O  0.47115046  0.17348060  0.46512615    -0.72980
O368        O  0.47981668  0.15257099  0.53546193    -0.72990
O369        O  0.44352364  0.17209171  0.54651022    -0.72950
O370        O  0.43587688  0.19517094  0.47525350    -0.72970
O371        O  0.41958116  0.15373855  0.50322398    -0.72910
O372        O  0.45907392  0.21489959  0.51825526    -0.73100
V373        V  0.47471836  0.16393555  0.50066186     1.35240
V374        V  0.44027510  0.18368151  0.51073662     1.35170
C375        C  0.48348263  0.21594780  0.51405724     0.76340
C376        C  0.43059930  0.13269144  0.49624605     0.76390
C377        C  0.45198070  0.18735216  0.45793184     0.76260
C378        C  0.46252480  0.15711575  0.55253264     0.76220
O379        O  0.32807219  0.99456268  0.51550317    -0.72900
O380        O  0.39034091  0.97981739  0.47644146    -0.73120
O381        O  0.37172686  0.02146216  0.50136558    -0.72980
O382        O  0.34803495  0.95227287  0.49092961    -0.72990
O383        O  0.32717063  0.96418614  0.45568535    -0.72950
O384        O  0.35333249  0.03399843  0.46494059    -0.72970
O385        O  0.36995496  0.99043143  0.44046449    -0.72910
O386        O  0.30920919  0.00766649  0.47957589    -0.73100
V387        V  0.35900260  0.98730560  0.49543878     1.35240
V388        V  0.34016714  0.99894302  0.46094047     1.35170
C389        C  0.30779252  0.00329469  0.50394338     0.76340
C390        C  0.39058543  0.98265316  0.45171805     0.76390
C391        C  0.36828225  0.03898388  0.48423427     0.76260
C392        C  0.33423064  0.94613643  0.47133925     0.76220
O393        O  0.45644505  0.09580919  0.71221870    -0.72900
O394        O  0.52716294  0.08853836  0.68787006    -0.73120
O395        O  0.48320496  0.11101988  0.66964237    -0.72980
O396        O  0.50018240  0.07390905  0.73210969    -0.72990
O397        O  0.48770475  0.03740657  0.71401077    -0.72950
O398        O  0.47554251  0.07418252  0.64963484    -0.72970
O399        O  0.51682529  0.05041365  0.67184427    -0.72910
O400        O  0.44625255  0.06033886  0.69088862    -0.73100
V401        V  0.49169828  0.09156448  0.70023255     1.35240
V402        V  0.48184350  0.05626047  0.68204496     1.35170
C403        C  0.43911223  0.07966666  0.70453166     0.76340
C404        C  0.53366954  0.06824565  0.67494669     0.76390
C405        C  0.47675214  0.09907014  0.64892447     0.76260
C406        C  0.49572514  0.04957128  0.73422075     0.76220
O407        O  0.68633843  0.04195866  0.54570733    -0.72900
O408        O  0.62598951  0.05930622  0.58725216    -0.73120
O409        O  0.66879546  0.08454573  0.57066500    -0.72980
O410        O  0.64199587  0.01656762  0.56156444    -0.72990
O411        O  0.66393941  0.00244510  0.59532362    -0.72950
O412        O  0.68773262  0.07296656  0.60707143    -0.72970
O413        O  0.64608895  0.04403472  0.62170199    -0.72910
O414        O  0.70698970  0.03120369  0.58140909    -0.73100
V415        V  0.65626661  0.05019876  0.56689073     1.35240
V416        V  0.67592285  0.03781319  0.60063340     1.35170
C417        C  0.70753866  0.03508705  0.55693800     0.76340
C418        C  0.62590457  0.05416359  0.61162016     0.76390
C419        C  0.68180262  0.09082725  0.59069387     0.76260
C420        C  0.64720531  0.99821969  0.57732566     0.76220
O421        O  0.42767120  0.85564131  0.00484007    -0.72900
O422        O  0.42019603  0.82696833  0.07401804    -0.73120
O423        O  0.40521829  0.87122900  0.04975657    -0.72980
O424        O  0.44219245  0.80985356  0.02932773    -0.72990
O425        O  0.47850460  0.82708714  0.04358708    -0.72950
O426        O  0.44235522  0.89079253  0.05759241    -0.72970
O427        O  0.45528903  0.84822224  0.08558082    -0.72910
O428        O  0.46621746  0.87024059  0.01589649    -0.73100
V429        V  0.42453277  0.84113899  0.03953457     1.35240
V430        V  0.45989219  0.85865961  0.05042968     1.35170
C431        C  0.44827140  0.86840100  0.99900586     0.76340
C432        C  0.43623190  0.83372224  0.09183178     0.76390
C433        C  0.41756238  0.89162628  0.05637774     0.76260
C434        C  0.46639155  0.80746175  0.03434445     0.76220
O435        O  0.39411787  0.04787385  0.08053717    -0.72900
O436        O  0.33064158  0.03951500  0.04131525    -0.73120
O437        O  0.35460025  0.07919773  0.06630038    -0.72980
O438        O  0.37111879  0.00844325  0.05471062    -0.72990
O439        O  0.35315730  0.99723158  0.09169617    -0.72950
O440        O  0.33159966  0.06866982  0.10064596    -0.72970
O441        O  0.31113914  0.02641381  0.07689280    -0.72910
O442        O  0.37247887  0.03983948  0.11640856    -0.73100
V443        V  0.36216725  0.04347893  0.06136769     1.35240
V444        V  0.34241541  0.03312788  0.09570504     1.35170
C445        C  0.39374500  0.04604784  0.10538284     0.76340
C446        C  0.30990314  0.03173434  0.05271572     0.76390
C447        C  0.34037899  0.08617664  0.08524075     0.76260
C448        C  0.36632499  0.99092995  0.07149793     0.76220
O449        O  0.52714592  0.95312862  0.87638600    -0.72900
O450        O  0.45676025  0.94458726  0.85139900    -0.73120
O451        O  0.49957026  0.96963805  0.83372058    -0.72980
O452        O  0.48441035  0.92728688  0.89262213    -0.72990
O453        O  0.46940305  0.96114669  0.91373525    -0.72950
O454        O  0.48990247  0.00487483  0.85558969    -0.72970
O455        O  0.44602855  0.98073044  0.87129391    -0.72910
O456        O  0.51363870  0.98606578  0.89988734    -0.73100
V457        V  0.49185404  0.94941037  0.86383880     1.35240
V458        V  0.48018775  0.98265521  0.88465877     1.35170
C459        C  0.53164138  0.97019721  0.89394943     0.76340
C460        C  0.43932651  0.96122264  0.85776724     0.76390
C461        C  0.49667352  0.99423867  0.83402800     0.76260
C462        C  0.47346728  0.93654995  0.91277976     0.76220
O463        O  0.49125435  0.08053348  0.18278694    -0.72900
O464        O  0.56075797  0.09112341  0.20949449    -0.73120
O465        O  0.53466012  0.10547036  0.16637330    -0.72980
O466        O  0.51749970  0.06709730  0.22744551    -0.72990
O467        O  0.53151269  0.03112898  0.20938661    -0.72950
O468        O  0.54577008  0.06945808  0.14638507    -0.72970
O469        O  0.57316601  0.05584699  0.18903063    -0.72910
O470        O  0.50448130  0.04392644  0.16532808    -0.73100
V471        V  0.52614396  0.08528666  0.19626389     1.35240
V472        V  0.53839658  0.05071314  0.17802941     1.35170
C473        C  0.48668950  0.06082211  0.16823152     0.76340
C474        C  0.57897773  0.07552110  0.20277836     0.76390
C475        C  0.54288917  0.09419523  0.14596903     0.76260
C476        C  0.52275004  0.04297847  0.22948837     0.76220
O477        O  0.52116614  0.19601142  0.00741688    -0.72900
O478        O  0.56054463  0.13355572  0.99445751    -0.73120
O479        O  0.53579181  0.15327557  0.03564130    -0.72980
O480        O  0.54543753  0.17486259  0.96581586    -0.72990
O481        O  0.58028291  0.19681217  0.97687764    -0.72950
O482        O  0.57249024  0.17173926  0.04717866    -0.72970
O483        O  0.59643289  0.15472697  0.00364662    -0.72910
O484        O  0.55695030  0.21531801  0.02020094    -0.73100
V485        V  0.54134318  0.16496407  0.00112715     1.35240
V486        V  0.57576947  0.18439087  0.01189331     1.35170
C487        C  0.53267282  0.21661363  0.01539226     0.76340
C488        C  0.58532260  0.13374692  0.99669960     0.76390
C489        C  0.55335020  0.15679229  0.05267989     0.76260
C490        C  0.56455153  0.18906058  0.95921247     0.76220
O491        O  0.68836761  0.99762343  0.01801693    -0.72900
O492        O  0.62682628  0.97967245  0.97918475    -0.73120
O493        O  0.67033060  0.95435606  0.99433562    -0.72980
O494        O  0.64377843  0.02254980  0.00341154    -0.72990
O495        O  0.66315370  0.03567078  0.96771819    -0.72950
O496        O  0.68906949  0.96610235  0.95786763    -0.72970
O497        O  0.64613329  0.99229083  0.94329666    -0.72910
O498        O  0.70743286  0.00927987  0.98170776    -0.73100
V499        V  0.65781456  0.98887429  0.99809959     1.35240
V500        V  0.67619073  0.00071665  0.96342535     1.35170
C501        C  0.70876298  0.00566529  0.00620073     0.76340
C502        C  0.62609431  0.98303825  0.95452276     0.76390
C503        C  0.68341116  0.94826208  0.97427439     0.76260
C504        C  0.64762370  0.04028476  0.98660471     0.76220
O505        O  0.94092201  0.17548961  0.01358274    -0.72900
O506        O  0.93191153  0.20074174  0.08366843    -0.73120
O507        O  0.95566820  0.21906289  0.04042799    -0.72980
O508        O  0.91636955  0.15839408  0.05687457    -0.72990
O509        O  0.95169849  0.13851509  0.07007216    -0.72950
O510        O  0.99184100  0.19916867  0.05104717    -0.72970
O511        O  0.96835718  0.18153792  0.09472384    -0.72910
O512        O  0.97586218  0.15467166  0.02653895    -0.73100
V513        V  0.93697883  0.18812657  0.04876498     1.35240
V514        V  0.97133172  0.16895676  0.06023089     1.35170
C515        C  0.95933901  0.15944555  0.00877654     0.76340
C516        C  0.94852682  0.19474086  0.10123085     0.76390
C517        C  0.98022272  0.21991890  0.04349973     0.76260
C518        C  0.92701007  0.13831354  0.06672104     0.76220
O519        O  0.82927752  0.00233971  0.04999985    -0.72900
O520        O  0.88980850  0.98488461  0.09099957    -0.73120
O521        O  0.84837606  0.95889383  0.07256618    -0.72980
O522        O  0.87217726  0.02849564  0.06776601    -0.72990
O523        O  0.84995504  0.03926007  0.10259725    -0.72950
O524        O  0.82806708  0.96768716  0.10900284    -0.72970
O525        O  0.86862271  0.99640730  0.12617628    -0.72910
O526        O  0.80808730  0.01066956  0.08601959    -0.73100
V527        V  0.85940863  0.99398642  0.07094123     1.35240
V528        V  0.83897574  0.00340618  0.10518230     1.35170
C529        C  0.80790723  0.00828701  0.06137001     0.76340
C530        C  0.88933613  0.98785352  0.11572134     0.76390
C531        C  0.83518209  0.95102447  0.09191658     0.76260
C532        C  0.86614953  0.04540185  0.08473108     0.76220
O533        O  0.99732046  0.99063665  0.17288953    -0.72900
O534        O  0.06942440  0.98431819  0.18816627    -0.73120
O535        O  0.03824381  0.96826176  0.14906635    -0.72980
O536        O  0.02820288  0.00611015  0.21288995    -0.72990
O537        O  0.01686984  0.96976138  0.23212058    -0.72950
O538        O  0.03501199  0.93166627  0.17079392    -0.72970
O539        O  0.06129786  0.95004838  0.21229312    -0.72910
O540        O  0.99024624  0.95182164  0.18928749    -0.73100
V541        V  0.03312353  0.98672248  0.18121363     1.35240
V542        V  0.02588022  0.95154761  0.20086404     1.35170
C543        C  0.98201439  0.97158973  0.17664353     0.76340
C544        C  0.07766746  0.96628714  0.20298171     0.76390
C545        C  0.03892489  0.94337290  0.14930568     0.76260
C546        C  0.02082278  0.99422459  0.23350289     0.76220
O547        O  0.07005130  0.86755041  0.04954190    -0.72900
O548        O  0.08260894  0.84377842  0.97918196    -0.73120
O549        O  0.09709875  0.88528264  0.00828117    -0.72980
O550        O  0.05633755  0.82476995  0.02067738    -0.72990
O551        O  0.02089474  0.84569158  0.00957560    -0.72950
O552        O  0.06306693  0.90552067  0.99234270    -0.72970
O553        O  0.04643716  0.86288908  0.96716727    -0.72910
O554        O  0.03669790  0.88977029  0.03495406    -0.73100
V555        V  0.07579864  0.85563084  0.01425992     1.35240
V556        V  0.04236563  0.87550481  0.00142601     1.35170
C557        C  0.05196148  0.88421569  0.05360902     0.76340
C558        C  0.06648767  0.84981486  0.96112862     0.76390
C559        C  0.08739381  0.90540734  0.99765415     0.76260
C560        C  0.03191233  0.82446416  0.01665874     0.76220
O561        O  0.18946863  0.04229182  0.01194460    -0.72900
O562        O  0.12525254  0.05379506  0.97511981    -0.73120
O563        O  0.14803388  0.01254928  0.99843942    -0.72980
O564        O  0.16592090  0.08369002  0.98938199    -0.72990
O565        O  0.18867362  0.07375578  0.95471019    -0.72950
O566        O  0.16315971  0.00352751  0.95955872    -0.72970
O567        O  0.14599717  0.04837268  0.93824459    -0.72910
O568        O  0.20736406  0.02919231  0.97553435    -0.73100
V569        V  0.15758299  0.04785293  0.99309032     1.35240
V570        V  0.17606190  0.03874283  0.95774729     1.35170
C571        C  0.20949496  0.03386655  0.99980553     0.76340
C572        C  0.12503953  0.05382530  0.95021526     0.76390
C573        C  0.15082980  0.99637720  0.97995763     0.76260
C574        C  0.18039899  0.09093906  0.97068112     0.76220
O575        O  0.98631293  0.03801486  0.85012016    -0.72900
O576        O  0.97079038  0.07570928  0.91290937    -0.73120
O577        O  0.94389610  0.06143800  0.87022628    -0.72980
O578        O  0.01289899  0.05168556  0.89399162    -0.72990
O579        O  0.02512258  0.08835778  0.87588929    -0.72950
O580        O  0.95503259  0.09749957  0.85035399    -0.72970
O581        O  0.98143948  0.11211010  0.89334201    -0.72910
O582        O  0.99847367  0.07447343  0.83163526    -0.73100
V583        V  0.97878779  0.05737560  0.88131693     1.35240
V584        V  0.98993298  0.09235636  0.86307288     1.35170
C585        C  0.99424268  0.05011767  0.82984494     0.76340
C586        C  0.97334958  0.10044914  0.91364091     0.76390
C587        C  0.93739728  0.08113141  0.85676077     0.76260
C588        C  0.03030816  0.06887854  0.89055773     0.76220
O589        O  0.04868212  0.08222393  0.41222450    -0.72900
O590        O  0.02885860  0.03953559  0.35352729    -0.73120
O591        O  0.07243974  0.06399608  0.36929016    -0.72980
O592        O  0.00497380  0.05704148  0.39786876    -0.72990
O593        O  0.99100602  0.09033441  0.37512812    -0.72950
O594        O  0.06129323  0.10030180  0.34989707    -0.72970
O595        O  0.01864994  0.07496294  0.33211933    -0.72910
O596        O  0.03332357  0.11638362  0.39173074    -0.73100
V597        V  0.03835881  0.06129865  0.38275484     1.35240
V598        V  0.02623464  0.09478010  0.36250966     1.35170
C599        C  0.04385593  0.10665708  0.41190395     0.76340
C600        C  0.02168459  0.05037626  0.33222939     0.76390
C601        C  0.07889112  0.08361192  0.35572492     0.76260
C602        C  0.98670753  0.07276160  0.39229537     0.76220
O603        O  0.85312586  0.00913681  0.46304715    -0.72900
O604        O  0.82821018  0.07960270  0.45626424    -0.73120
O605        O  0.87078610  0.05334908  0.44041049    -0.72980
O606        O  0.80922915  0.03567203  0.47827651    -0.72990
O607        O  0.82805386  0.04690541  0.51482439    -0.72950
O608        O  0.89093682  0.06237282  0.47691565    -0.72970
O609        O  0.84881267  0.08984988  0.49216375    -0.72910
O610        O  0.87155339  0.01990369  0.50001692    -0.73100
V611        V  0.84060861  0.04452378  0.46027710     1.35240
V612        V  0.85931032  0.05449097  0.49534840     1.35170
C613        C  0.86781153  0.00313475  0.48224553     0.76340
C614        C  0.83519584  0.09689353  0.47273791     0.76390
C615        C  0.89139995  0.06054283  0.45209618     0.76260
C616        C  0.80764259  0.03919452  0.50277110     0.76220
O617        O  0.94239835  0.87049686  0.54667786    -0.72900
O618        O  0.93285467  0.84576324  0.47641579    -0.73120
O619        O  0.95674934  0.82671523  0.51929230    -0.72980
O620        O  0.91779801  0.88811124  0.50361651    -0.72990
O621        O  0.95371824  0.90871050  0.49353754    -0.72950
O622        O  0.99256594  0.84553566  0.50592269    -0.72970
O623        O  0.96786333  0.86718659  0.46486667    -0.72910
O624        O  0.97921385  0.88814520  0.53450520    -0.73100
V625        V  0.93819977  0.85804376  0.51140730     1.35240
V626        V  0.97268955  0.87693769  0.50003661     1.35170
C627        C  0.96224579  0.88454694  0.55212265     0.76340
C628        C  0.94855203  0.85315283  0.45854984     0.76390
C629        C  0.98094338  0.82505275  0.51409249     0.76260
C630        C  0.92892196  0.90890035  0.49602221     0.76220
O631        O  0.08093877  0.18171622  0.51108035    -0.72900
O632        O  0.08559903  0.20635378  0.58171395    -0.73120
O633        O  0.10218409  0.16390851  0.55578590    -0.72980
O634        O  0.06473136  0.22563690  0.53730084    -0.72990
O635        O  0.02825919  0.20724163  0.54949085    -0.72950
O636        O  0.06532633  0.14323426  0.56147277    -0.72970
O637        O  0.05057507  0.18392943  0.59112027    -0.72910
O638        O  0.04232420  0.16585536  0.51994216    -0.73100
V639        V  0.08262143  0.19416366  0.54649657     1.35240
V640        V  0.04728335  0.17549241  0.55528462     1.35170
C641        C  0.06075322  0.16912319  0.50378356     0.76340
C642        C  0.06934247  0.19816298  0.59867983     0.76390
C643        C  0.09022513  0.14293772  0.56135324     0.76260
C644        C  0.04033253  0.22749326  0.54150249     0.76220
O645        O  0.16344518  0.04193609  0.59651910    -0.72900
O646        O  0.18717479  0.97124572  0.60658356    -0.73120
O647        O  0.20677643  0.01370821  0.58241416    -0.72980
O648        O  0.14512508  0.99909477  0.62139632    -0.72990
O649        O  0.12484416  0.98812314  0.58551819    -0.72950
O650        O  0.18732338  0.00163960  0.54645959    -0.72970
O651        O  0.16662646  0.96006818  0.57093913    -0.72910
O652        O  0.14426494  0.02951637  0.56049250    -0.73100
V653        V  0.17534777  0.00642169  0.60098045     1.35240
V654        V  0.15627734  0.99516853  0.56650589     1.35170
C655        C  0.14850333  0.04716626  0.57725770     0.76340
C656        C  0.18014568  0.95352105  0.59057536     0.76390
C657        C  0.20805972  0.00903506  0.55809390     0.76260
C658        C  0.12451233  0.99110471  0.61022264     0.76220
O659        O  0.02393493  0.95837981  0.68480306    -0.72900
O660        O  0.95326761  0.95002257  0.70881020    -0.73120
O661        O  0.98060274  0.93450375  0.66685560    -0.72980
O662        O  0.99649284  0.97315559  0.72804940    -0.72990
O663        O  0.98480119  0.00939483  0.70884044    -0.72950
O664        O  0.97054037  0.97056454  0.64625360    -0.72970
O665        O  0.94255677  0.98570002  0.68800624    -0.72910
O666        O  0.01230453  0.99479188  0.66575761    -0.73100
V667        V  0.98845408  0.95478867  0.69685913     1.35240
V668        V  0.97782370  0.98948595  0.67774162     1.35170
C669        C  0.02954226  0.97756159  0.66992362     0.76340
C670        C  0.93573528  0.96616074  0.70154604     0.76390
C671        C  0.97318351  0.94583338  0.64616527     0.76260
C672        C  0.99257172  0.99757780  0.72937410     0.76220
O673        O  0.77443176  0.61904951  0.83991616    -0.72900
O674        O  0.70475362  0.59160624  0.84826431    -0.73120
O675        O  0.74873620  0.57461933  0.82461424    -0.72980
O676        O  0.73039851  0.63441419  0.86435564    -0.72990
O677        O  0.72000963  0.65541715  0.82866837    -0.72950
O678        O  0.73533680  0.59366745  0.78889144    -0.72970
O679        O  0.69302788  0.61312867  0.81335644    -0.72910
O680        O  0.76187088  0.63744873  0.80351023    -0.73100
V681        V  0.73949003  0.60518488  0.84352273     1.35240
V682        V  0.72787651  0.62438554  0.80922557     1.35170
C683        C  0.77930707  0.63425258  0.82073508     0.76340
C684        C  0.68680628  0.59880752  0.83252213     0.76390
C685        C  0.74404837  0.57328461  0.80032593     0.76260
C686        C  0.72244359  0.65514483  0.85344887     0.76220
O687        O  0.90990341  0.71147277  0.75572063    -0.72900
O688        O  0.93478641  0.70328412  0.82624478    -0.73120
O689        O  0.89271986  0.68717140  0.79934874    -0.72980
O690        O  0.95340584  0.72676430  0.78300768    -0.72990
O691        O  0.93414783  0.76254934  0.79581805    -0.72950
O692        O  0.87150990  0.72295966  0.80874116    -0.72970
O693        O  0.91285699  0.73814635  0.83727614    -0.72910
O694        O  0.89135714  0.74806119  0.76741789    -0.73100
V695        V  0.92240945  0.70793699  0.79113965     1.35240
V696        V  0.90297299  0.74231518  0.80197881     1.35170
C697        C  0.89514064  0.73077903  0.75015261     0.76340
C698        C  0.92709149  0.71905831  0.84390979     0.76390
C699        C  0.87178293  0.69812168  0.80672157     0.76260
C700        C  0.95482981  0.75099478  0.78803910     0.76220
O701        O  0.60235028  0.83566269  0.79913413    -0.72900
O702        O  0.57702630  0.84576132  0.72900386    -0.73120
O703        O  0.55872514  0.82109938  0.77177824    -0.72980
O704        O  0.61931790  0.86108521  0.75614318    -0.72990
O705        O  0.63994380  0.82568027  0.74439203    -0.72950
O706        O  0.57836454  0.78549428  0.75899310    -0.72970
O707        O  0.59788980  0.81047267  0.71730354    -0.72910
O708        O  0.62156639  0.79992793  0.78601590    -0.73100
V709        V  0.58963558  0.84016020  0.76392672     1.35240
V710        V  0.60895796  0.80604898  0.75204146     1.35170
C711        C  0.61753050  0.81647176  0.80389803     0.76340
C712        C  0.58398736  0.82991435  0.71110078     0.76390
C713        C  0.55767079  0.79680964  0.76696028     0.76260
C714        C  0.63988003  0.85040365  0.74741806     0.76220
O715        O  0.69364612  0.75234153  0.93308849    -0.72900
O716        O  0.68744961  0.82170290  0.96103400    -0.73120
O717        O  0.66926929  0.79671638  0.91855927    -0.72980
O718        O  0.71129951  0.77750249  0.97679819    -0.72990
O719        O  0.74611517  0.79170561  0.95670284    -0.72950
O720        O  0.70451006  0.80536781  0.89608297    -0.72970
O721        O  0.72076965  0.83342415  0.93706960    -0.72910
O722        O  0.73014779  0.76407621  0.91434353    -0.73100
V723        V  0.69113778  0.78714937  0.94710005     1.35240
V724        V  0.72479268  0.79835971  0.92661047     1.35170
C725        C  0.71254424  0.74707350  0.91776157     0.76340
C726        C  0.70252730  0.83957628  0.95253619     0.76390
C727        C  0.67973807  0.80362484  0.89720969     0.76260
C728        C  0.73555821  0.78260528  0.97732627     0.76220
O729        O  0.78427923  0.78115070  0.63634186    -0.72900
O730        O  0.79374291  0.71119386  0.61439071    -0.73120
O731        O  0.80920714  0.73974828  0.65570939    -0.72980
O732        O  0.76917015  0.75288989  0.59361270    -0.72990
O733        O  0.80472976  0.76535356  0.57371714    -0.72950
O734        O  0.84490996  0.74933443  0.63443201    -0.72970
O735        O  0.82856246  0.72230754  0.59243930    -0.72910
O736        O  0.82058427  0.79272483  0.61710884    -0.73100
V737        V  0.78970873  0.74655108  0.62446661     1.35240
V738        V  0.82392603  0.75735677  0.60470207     1.35170
C739        C  0.80166060  0.79826821  0.63229803     0.76340
C740        C  0.81284131  0.70460540  0.60012518     0.76390
C741        C  0.83397431  0.74217414  0.65548680     0.76260
C742        C  0.78040094  0.76057167  0.57272614     0.76220
O743        O  0.77737495  0.95025815  0.76347115    -0.72900
O744        O  0.79235237  0.88958791  0.72157352    -0.73120
O745        O  0.81956626  0.93115813  0.73851452    -0.72980
O746        O  0.75041552  0.90724747  0.74720145    -0.72990
O747        O  0.73791413  0.92817598  0.71213039    -0.72950
O748        O  0.80841703  0.95281189  0.70349647    -0.72970
O749        O  0.78079050  0.91129648  0.68673642    -0.72910
O750        O  0.76556325  0.97096557  0.72812599    -0.73100
V751        V  0.78459849  0.92008590  0.74207904     1.35240
V752        V  0.77329283  0.94050288  0.70837988     1.35170
C753        C  0.76973037  0.97135417  0.75255420     0.76340
C754        C  0.78913713  0.89028338  0.69685603     0.76390
C755        C  0.82610891  0.94542359  0.71941988     0.76260
C756        C  0.73281512  0.91224491  0.73059541     0.76220
O757        O  0.24175377  0.79377357  0.60135839    -0.72900
O758        O  0.20283255  0.80891151  0.66412606    -0.73120
O759        O  0.22647255  0.76613180  0.64425522    -0.72980
O760        O  0.21886919  0.83645080  0.62247609    -0.72990
O761        O  0.18268783  0.82663800  0.60215139    -0.72950
O762        O  0.18997134  0.75561605  0.62474761    -0.72970
O763        O  0.16694768  0.79837866  0.64361096    -0.72910
O764        O  0.20521561  0.78360654  0.58194368    -0.73100
V765        V  0.22186961  0.80101305  0.63259548     1.35240
V766        V  0.18701953  0.79120298  0.61338884     1.35170
C767        C  0.22974560  0.78681029  0.58062478     0.76340
C768        C  0.17806263  0.80612983  0.66429782     0.76390
C769        C  0.20904302  0.74928572  0.63937940     0.76260
C770        C  0.19928219  0.84376375  0.60926638     0.76220
O771        O  0.23488559  0.59246557  0.76352996    -0.72900
O772        O  0.21932362  0.65456408  0.72401283    -0.73120
O773        O  0.19258617  0.61217874  0.73914100    -0.72980
O774        O  0.26148203  0.63624308  0.74912359    -0.72990
O775        O  0.27468098  0.61568340  0.71418079    -0.72950
O776        O  0.20389339  0.59337340  0.70259047    -0.72970
O777        O  0.23314080  0.63491974  0.68878749    -0.72910
O778        O  0.24566775  0.57283234  0.72728393    -0.73100
V779        V  0.22742503  0.62336996  0.74334477     1.35240
V780        V  0.23917574  0.60445382  0.70897517     1.35170
C781        C  0.24197557  0.57167080  0.75174572     0.76340
C782        C  0.22388196  0.65519070  0.69952763     0.76390
C783        C  0.18610891  0.59966523  0.71886413     0.76260
C784        C  0.27949763  0.63136552  0.73291086     0.76220
O785        O  0.32750119  0.78571822  0.93279580    -0.72900
O786        O  0.33120464  0.71476562  0.95669742    -0.73120
O787        O  0.34898814  0.74115913  0.91507044    -0.72980
O788        O  0.31003650  0.75908004  0.97592755    -0.72990
O789        O  0.27404582  0.74682480  0.95665924    -0.72950
O790        O  0.31263412  0.73638049  0.89327834    -0.72970
O791        O  0.29703123  0.70561620  0.93289370    -0.72910
O792        O  0.28907038  0.77735704  0.91623311    -0.73100
V793        V  0.32869531  0.75014424  0.94487835     1.35240
V794        V  0.29382243  0.74174196  0.92521488     1.35170
C795        C  0.30755776  0.79335625  0.92000567     0.76340
C796        C  0.31539369  0.69785260  0.94757767     0.76390
C797        C  0.33753073  0.73629987  0.89366286     0.76260
C798        C  0.28561125  0.75480989  0.97720722     0.76220
O799        O  0.43791696  0.75423975  0.75435128    -0.72900
O800        O  0.37514193  0.71580749  0.74048003    -0.73120
O801        O  0.39481796  0.74030170  0.78186532    -0.72980
O802        O  0.41705177  0.73028347  0.71231841    -0.72990
O803        O  0.43808597  0.69489224  0.72345699    -0.72950
O804        O  0.41281203  0.70347898  0.79378109    -0.72970
O805        O  0.39554290  0.67956356  0.75013007    -0.72910
O806        O  0.45670797  0.71811113  0.76702576    -0.73100
V807        V  0.40676075  0.73450650  0.74750642     1.35240
V808        V  0.42554220  0.69976693  0.75848715     1.35170
C809        C  0.45820463  0.74248673  0.76276438     0.76340
C810        C  0.37482543  0.69105030  0.74296779     0.76390
C811        C  0.39825359  0.72297813  0.79917286     0.76260
C812        C  0.43082651  0.71084055  0.70573061     0.76220
O813        O  0.10349182  0.84261831  0.76423550    -0.72900
O814        O  0.07741714  0.84667111  0.83437670    -0.73120
O815        O  0.12041668  0.86301251  0.80944425    -0.72980
O816        O  0.05876995  0.82676930  0.78928331    -0.72990
O817        O  0.07612422  0.78986856  0.80176204    -0.72950
O818        O  0.14070482  0.82586428  0.81478636    -0.72970
O819        O  0.09951532  0.81146816  0.84398907    -0.72910
O820        O  0.11838159  0.80353329  0.77284380    -0.73100
V821        V  0.09023424  0.84399793  0.79936926     1.35240
V822        V  0.10824152  0.80830240  0.80813087     1.35170
C823        C  0.11601065  0.82237221  0.75697734     0.76340
C824        C  0.08541069  0.83037894  0.85143801     0.76390
C825        C  0.14122188  0.85077840  0.81490678     0.76260
C826        C  0.05628694  0.80241438  0.79335228     0.76220
O827        O  0.27971562  0.94906605  0.79512863    -0.72900
O828        O  0.29761161  0.88795586  0.83548745    -0.73120
O829        O  0.25442294  0.90480393  0.81108772    -0.72980
O830        O  0.32288004  0.93058599  0.81875965    -0.72990
O831        O  0.31232891  0.94912282  0.85568565    -0.72950
O832        O  0.24138700  0.92655298  0.84538208    -0.72970
O833        O  0.28322974  0.90769146  0.87046798    -0.72910
O834        O  0.27024723  0.96937579  0.83135897    -0.73100
V835        V  0.28828178  0.91860011  0.81570523     1.35240
V836        V  0.27695551  0.93793622  0.84997378     1.35170
C837        C  0.27321906  0.97016040  0.80677758     0.76340
C838        C  0.29295252  0.88752355  0.85995740     0.76390
C839        C  0.23657277  0.91006565  0.82734665     0.76260
C840        C  0.32972521  0.94307656  0.83890111     0.76220
O841        O  0.09929890  0.70117883  0.25709241    -0.72900
O842        O  0.07656974  0.69066057  0.32808969    -0.73120
O843        O  0.05732615  0.71631157  0.28639960    -0.72980
O844        O  0.11739561  0.67474102  0.29861007    -0.72990
O845        O  0.13831318  0.70875799  0.31366539    -0.72950
O846        O  0.07910645  0.75165169  0.29602830    -0.72970
O847        O  0.09630628  0.72689095  0.33884791    -0.72910
O848        O  0.12264575  0.73424458  0.27061231    -0.73100
V849        V  0.08794773  0.69643398  0.29269429     1.35240
V850        V  0.10860620  0.72980133  0.30439280     1.35170
C851        C  0.11641763  0.71867404  0.25247602     0.76340
C852        C  0.08299062  0.70722489  0.34556810     0.76390
C853        C  0.05753839  0.74084743  0.28972802     0.76260
C854        C  0.13780541  0.68436556  0.30872512     0.76220
O855        O  0.23701941  0.60948505  0.34540997    -0.72900
O856        O  0.30815558  0.58653055  0.35100603    -0.73120
O857        O  0.28069041  0.62777881  0.36817427    -0.72980
O858        O  0.26479012  0.56673547  0.32880870    -0.72990
O859        O  0.27799687  0.58607930  0.29317243    -0.72950
O860        O  0.28587671  0.64982245  0.33200951    -0.72970
O861        O  0.31780848  0.61075052  0.31723570    -0.72910
O862        O  0.24621723  0.62592569  0.30710120    -0.73100
V863        V  0.27270143  0.59789678  0.34762974     1.35240
V864        V  0.28175551  0.61771863  0.31300120     1.35170
C865        C  0.22978089  0.62206179  0.32516330     0.76340
C866        C  0.32527821  0.59583875  0.33551891     0.76390
C867        C  0.28536615  0.64934151  0.35692690     0.76260
C868        C  0.27016071  0.56537815  0.30461774     0.76220
O869        O  0.18749613  0.78663711  0.12098527    -0.72900
O870        O  0.18333729  0.71655313  0.09494231    -0.73120
O871        O  0.16542674  0.74189765  0.13724009    -0.72980
O872        O  0.20522190  0.76101860  0.07724874    -0.72990
O873        O  0.24098177  0.74846674  0.09677870    -0.72950
O874        O  0.20147880  0.73507402  0.15895771    -0.72970
O875        O  0.21762426  0.70640671  0.11819761    -0.72910
O876        O  0.22530871  0.77722759  0.13840602    -0.73100
V877        V  0.18612348  0.75149069  0.10787396     1.35240
V878        V  0.22071447  0.74206903  0.12764210     1.35170
C879        C  0.20705579  0.79354501  0.13470854     0.76340
C880        C  0.19924457  0.69930148  0.10322277     0.76390
C881        C  0.17659306  0.73551341  0.15842441     0.76260
C882        C  0.22963457  0.75658085  0.07615983     0.76220
O883        O  0.26896531  0.79049387  0.45868971    -0.72900
O884        O  0.30558417  0.80109522  0.39408248    -0.73120
O885        O  0.28044732  0.76110984  0.41575937    -0.72980
O886        O  0.29361242  0.83096265  0.43577533    -0.72990
O887        O  0.32916864  0.81902627  0.45606735    -0.72950
O888        O  0.31747559  0.74851947  0.43281388    -0.72970
O889        O  0.34214234  0.79080505  0.41353241    -0.72910
O890        O  0.30517078  0.77696948  0.47667705    -0.73100
V891        V  0.28779921  0.79563011  0.42659199     1.35240
V892        V  0.32273001  0.78394354  0.44452986     1.35170
C893        C  0.28111135  0.78255242  0.47896255     0.76340
C894        C  0.33020572  0.79769415  0.39293497     0.76390
C895        C  0.29747846  0.74343548  0.41883986     0.76260
C896        C  0.31352164  0.83711423  0.44909979     0.76220
O897        O  0.42554141  0.76821088  0.25098841    -0.72900
O898        O  0.36372844  0.80884355  0.23657491    -0.73120
O899        O  0.40467300  0.79181649  0.20832323    -0.72980
O900        O  0.38300869  0.78473108  0.27876605    -0.72990
O901        O  0.40233483  0.82137470  0.28894809    -0.72950
O902        O  0.42758685  0.82630103  0.21850155    -0.72970
O903        O  0.38606732  0.84432655  0.24446695    -0.72910
O904        O  0.44519600  0.80409073  0.26286408    -0.73100
V905        V  0.39475831  0.78895199  0.24391791     1.35240
V906        V  0.41497761  0.82322341  0.25359616     1.35170
C907        C  0.44618514  0.77965676  0.25908677     0.76340
C908        C  0.36479064  0.83371432  0.23778544     0.76390
C909        C  0.41926312  0.81048577  0.20118216     0.76260
C910        C  0.38734164  0.80256286  0.29537110     0.76220
O911        O  0.23621891  0.94555306  0.26333162    -0.72900
O912        O  0.21491193  0.88668011  0.22137860    -0.73120
O913        O  0.25860228  0.89995196  0.24662214    -0.72980
O914        O  0.19246259  0.93085843  0.23886534    -0.72990
O915        O  0.20463910  0.95003111  0.20278301    -0.72950
O916        O  0.27327457  0.92079935  0.21240926    -0.72970
O917        O  0.23024613  0.90661674  0.18688971    -0.72910
O918        O  0.24822074  0.96569874  0.22774065    -0.73100
V919        V  0.22593398  0.91624816  0.24194906     1.35240
V920        V  0.23891966  0.93555114  0.20821957     1.35170
C921        C  0.24448502  0.96632025  0.25222628     0.76340
C922        C  0.21980977  0.88657460  0.19694383     0.76390
C923        C  0.27659751  0.90352506  0.23008128     0.76260
C924        C  0.18677237  0.94492516  0.21938766     0.76220
O925        O  0.57779127  0.25604047  0.80175442    -0.72900
O926        O  0.63943321  0.21613250  0.81869708    -0.73120
O927        O  0.62229678  0.24209162  0.77637261    -0.72980
O928        O  0.59623229  0.23097225  0.84420419    -0.72990
O929        O  0.57828665  0.19427196  0.83200385    -0.72950
O930        O  0.60167562  0.20772472  0.76185409    -0.72970
O931        O  0.62034772  0.18135825  0.80302654    -0.72910
O932        O  0.55830670  0.21988137  0.79042660    -0.73100
V933        V  0.60847227  0.23570220  0.80988996     1.35240
V934        V  0.58989628  0.20155464  0.79703057     1.35170
C935        C  0.55712217  0.24434007  0.79412483     0.76340
C936        C  0.64027682  0.19182201  0.81327879     0.76390
C937        C  0.61750245  0.22653250  0.75778894     0.76260
C938        C  0.58393430  0.21040561  0.85012698     0.76220
O939        O  0.73897185  0.45213175  0.75870764    -0.72900
O940        O  0.72080756  0.39076378  0.71935785    -0.73120
O941        O  0.76443181  0.40790113  0.74289668    -0.72980
O942        O  0.69542788  0.43337605  0.73572369    -0.72990
O943        O  0.70559583  0.45133804  0.69838985    -0.72950
O944        O  0.77682052  0.42973473  0.70835031    -0.72970
O945        O  0.73477287  0.41009961  0.68397371    -0.72910
O946        O  0.74765855  0.47225715  0.72213349    -0.73100
V947        V  0.73028926  0.42153334  0.73859727     1.35240
V948        V  0.74108691  0.44059989  0.70397901     1.35170
C949        C  0.74507612  0.47316048  0.74674665     0.76340
C950        C  0.72492265  0.39014197  0.69481194     0.76390
C951        C  0.78208164  0.41351751  0.72650196     0.76260
C952        C  0.68830423  0.44538081  0.71530822     0.76220
O953        O  0.74007236  0.25011680  0.59945861    -0.72900
O954        O  0.70238256  0.23982791  0.66331483    -0.73120
O955        O  0.71788407  0.20877155  0.62386160    -0.72980
O956        O  0.72519530  0.28069004  0.63970250    -0.72990
O957        O  0.68624765  0.28833392  0.62393106    -0.72950
O958        O  0.68375897  0.21753006  0.59979769    -0.72970
O959        O  0.66577279  0.24332950  0.64163609    -0.72910
O960        O  0.70374068  0.26237783  0.58077259    -0.73100
V961        V  0.72077329  0.24499983  0.63115150     1.35240
V962        V  0.68559601  0.25284253  0.61178309     1.35170
C963        C  0.72815129  0.25832435  0.57919236     0.76340
C964        C  0.67750862  0.23924935  0.66303220     0.76390
C965        C  0.69976561  0.20082567  0.60899140     0.76260
C966        C  0.70635428  0.29631479  0.63619566     0.76220
O967        O  0.77859460  0.09114304  0.79545576    -0.72900
O968        O  0.79163231  0.15478658  0.83268609    -0.73120
O969        O  0.82061351  0.11379624  0.81782235    -0.72980
O970        O  0.74961387  0.13307999  0.80970590    -0.72990
O971        O  0.74063835  0.11723237  0.84832159    -0.72950
O972        O  0.81077012  0.09126231  0.85269264    -0.72970
O973        O  0.78568663  0.13400782  0.86947244    -0.72910
O974        O  0.76607558  0.07283579  0.83188159    -0.73100
V975        V  0.78485612  0.12276189  0.81454963     1.35240
V976        V  0.77580322  0.10407731  0.84983650     1.35170
C977        C  0.77040564  0.07094264  0.80750818     0.76340
C978        C  0.79170871  0.15489120  0.85758737     0.76390
C979        C  0.82790839  0.09940731  0.83660130     0.76260
C980        C  0.73350785  0.13013438  0.82825276     0.76220
O981        O  0.91414952  0.33863602  0.79309425    -0.72900
O982        O  0.93941727  0.34880919  0.72311827    -0.73120
O983        O  0.89694471  0.36387176  0.75019116    -0.72980
O984        O  0.95786488  0.32414463  0.76595634    -0.72990
O985        O  0.93806620  0.28827933  0.75424382    -0.72950
O986        O  0.87693184  0.32850116  0.73736414    -0.72970
O987        O  0.91971764  0.31286119  0.71142022    -0.72910
O988        O  0.89398350  0.30345408  0.77985709    -0.73100
V989        V  0.92682716  0.34310554  0.75795950     1.35240
V990        V  0.90768896  0.30890343  0.74605649     1.35170
C991        C  0.89834755  0.31995477  0.79772940     0.76340
C992        C  0.93309363  0.33270399  0.70522533     0.76390
C993        C  0.87659280  0.35313980  0.74099808     0.76260
C994        C  0.95877235  0.29964816  0.76217071     0.76220
O995        O  0.77582642  0.29361270  0.95617191    -0.72900
O996        O  0.81320855  0.30822177  0.89274193    -0.73120
O997        O  0.79028578  0.26614279  0.91314879    -0.72980
O998        O  0.79802686  0.33617005  0.93432345    -0.72990
O999        O  0.83395430  0.32651432  0.95521068    -0.72950
O1000       O  0.82762625  0.25567095  0.93099783    -0.72970
O1001       O  0.84985044  0.29992428  0.91297357    -0.72910
O1002       O  0.81256411  0.28244480  0.97470554    -0.73100
V1003       V  0.79498135  0.30076991  0.92462469     1.35240
V1004       V  0.83023135  0.29120957  0.94322465     1.35170
C1005       C  0.78810869  0.28595614  0.97648275     0.76340
C1006       C  0.83806015  0.30678455  0.89231895     0.76390
C1007       C  0.80819715  0.24950506  0.91667720     0.76260
C1008       C  0.81740249  0.34356411  0.94771746     0.76220
O1009       O  0.28003791  0.09126336  0.76412670    -0.72900
O1010       O  0.29352615  0.15372796  0.72442442    -0.73120
O1011       O  0.25195743  0.13394466  0.74889547    -0.72980
O1012       O  0.32192801  0.11250806  0.74038973    -0.72990
O1013       O  0.31162760  0.09042586  0.70541393    -0.72950
O1014       O  0.24088198  0.11513002  0.71223399    -0.72970
O1015       O  0.28483265  0.13231244  0.68857856    -0.72910
O1016       O  0.26798596  0.07171571  0.72823943    -0.73100
V1017       V  0.28657000  0.12233133  0.74383501     1.35240
V1018       V  0.27638828  0.10267941  0.70937722     1.35170
C1019       C  0.27236154  0.07051604  0.75261420     0.76340
C1020       C  0.29178541  0.15336362  0.69956933     0.76390
C1021       C  0.23501751  0.13000358  0.73135056     0.76260
C1022       C  0.32898029  0.09829058  0.72146452     0.76220
O1023       O  0.10235332  0.20194677  0.79675493    -0.72900
O1024       O  0.07806513  0.19804709  0.72591055    -0.73120
O1025       O  0.11976189  0.18006127  0.75229294    -0.72980
O1026       O  0.05916430  0.21953296  0.77005997    -0.72990
O1027       O  0.07875234  0.25541342  0.75796541    -0.72950
O1028       O  0.14166004  0.21618100  0.74652807    -0.72970
O1029       O  0.10169433  0.23232314  0.71665187    -0.72910
O1030       O  0.11958397  0.23999958  0.78795550    -0.73100
V1031       V  0.09010996  0.20063644  0.76123971     1.35240
V1032       V  0.10998065  0.23534012  0.75253017     1.35170
C1033       C  0.11563535  0.22166891  0.80409450     0.76340
C1034       C  0.08685179  0.21407713  0.70901234     0.76390
C1035       C  0.14113043  0.19126309  0.74668176     0.76260
C1036       C  0.05800217  0.24393275  0.76556270     0.76220
O1037       O  0.32380409  0.25108669  0.62071111    -0.72900
O1038       O  0.33301534  0.32114391  0.59444002    -0.73120
O1039       O  0.34795043  0.29482589  0.63745637    -0.72980
O1040       O  0.30969119  0.27765128  0.57608761    -0.72990
O1041       O  0.27345488  0.29015626  0.59468963    -0.72950
O1042       O  0.31187121  0.30589300  0.65727044    -0.72970
O1043       O  0.29718552  0.33246878  0.61455555    -0.72910
O1044       O  0.28733278  0.26367279  0.63885376    -0.73100
V1045       V  0.32784805  0.28623458  0.60743001     1.35240
V1046       V  0.29310828  0.29768245  0.62584381     1.35170
C1047       C  0.30449743  0.24617092  0.63572522     0.76340
C1048       C  0.31678264  0.33888758  0.60097202     0.76390
C1049       C  0.33664564  0.30333245  0.65777040     0.76260
C1050       C  0.28540396  0.28227124  0.57428611     0.76220
O1051       O  0.41232926  0.33759320  0.75772676    -0.72900
O1052       O  0.43634083  0.34510124  0.82855927    -0.73120
O1053       O  0.45559794  0.32221483  0.78534283    -0.72980
O1054       O  0.39445131  0.36123794  0.80128839    -0.72990
O1055       O  0.37386083  0.32535477  0.81162203    -0.72950
O1056       O  0.43591133  0.28601023  0.79623456    -0.72970
O1057       O  0.41569089  0.30920847  0.83875136    -0.72910
O1058       O  0.39258817  0.30150710  0.76915047    -0.73100
V1059       V  0.42438435  0.34076833  0.79328478     1.35240
V1060       V  0.40502245  0.30615034  0.80359284     1.35170
C1061       C  0.39701866  0.31879212  0.75203561     0.76340
C1062       C  0.42931654  0.32856303  0.84582080     0.76390
C1063       C  0.45676615  0.29776934  0.78929271     0.76260
C1064       C  0.37382334  0.35016246  0.80934487     0.76220
O1065       O  0.23561891  0.45051386  0.79288904    -0.72900
O1066       O  0.22164598  0.38768973  0.83147764    -0.73120
O1067       O  0.19349795  0.42931150  0.81614449    -0.72980
O1068       O  0.26340100  0.40753230  0.80760213    -0.72990
O1069       O  0.27451309  0.42623670  0.84432407    -0.72950
O1070       O  0.20373378  0.45031595  0.85179835    -0.72970
O1071       O  0.23091317  0.40827275  0.86766779    -0.72910
O1072       O  0.24713404  0.46966239  0.82918050    -0.73100
V1073       V  0.22882298  0.41928436  0.81266470     1.35240
V1074       V  0.23899491  0.43835313  0.84747307     1.35170
C1075       C  0.24305482  0.47110721  0.80477761     0.76340
C1076       C  0.22383886  0.38747923  0.85627883     0.76390
C1077       C  0.18642615  0.44301545  0.83545075     0.76260
C1078       C  0.28034436  0.41146376  0.82514755     0.76220
O1079       O  0.19538713  0.28867093  0.93423676    -0.72900
O1080       O  0.18373705  0.21826326  0.95789960    -0.73120
O1081       O  0.20982880  0.25982457  0.97687697    -0.72980
O1082       O  0.16864669  0.24732455  0.91653110    -0.72990
O1083       O  0.20265062  0.23171458  0.89604525    -0.72950
O1084       O  0.24520086  0.24922440  0.95562844    -0.72970
O1085       O  0.21990066  0.20659061  0.93857298    -0.72910
O1086       O  0.22862144  0.27450395  0.91156339    -0.73100
V1087       V  0.19013731  0.25335775  0.94610817     1.35240
V1088       V  0.22352412  0.24091147  0.92594227     1.35170
C1089       C  0.21305314  0.29286543  0.91719020     0.76340
C1090       C  0.19994545  0.20038330  0.95171311     0.76390
C1091       C  0.23431733  0.25610787  0.97698944     0.76260
C1092       C  0.17830292  0.23696060  0.89625069     0.76220
O1093       O  0.27817522  0.24580483  0.09682661    -0.72900
O1094       O  0.31710979  0.22853121  0.15861943    -0.73120
O1095       O  0.29301069  0.27133147  0.14100616    -0.72980
O1096       O  0.30162836  0.20273633  0.11579728    -0.72990
O1097       O  0.33819807  0.21359998  0.09677469    -0.72950
O1098       O  0.32857808  0.28406037  0.12116567    -0.72970
O1099       O  0.35294423  0.24087845  0.13911328    -0.72910
O1100       O  0.31452670  0.25662232  0.07738924    -0.73100
V1101       V  0.29812676  0.23743947  0.12754961     1.35240
V1102       V  0.33279968  0.24869520  0.10885862     1.35170
C1103       C  0.28999927  0.25324623  0.07618506     0.76340
C1104       C  0.34179215  0.23175836  0.15927126     0.76390
C1105       C  0.30975519  0.28898236  0.13672523     0.76260
C1106       C  0.32165843  0.19604474  0.10300005     0.76220
O1107       O  0.24300095  0.42075539  0.21000573    -0.72900
O1108       O  0.31338515  0.44579836  0.20316516    -0.73120
O1109       O  0.28700691  0.40362169  0.18662068    -0.72980
O1110       O  0.26960683  0.46428049  0.22586241    -0.72990
O1111       O  0.28192381  0.44499322  0.26185133    -0.72950
O1112       O  0.29568948  0.38252401  0.22268443    -0.72970
O1113       O  0.32387601  0.42363672  0.23813643    -0.72910
O1114       O  0.25405620  0.40241585  0.24693712    -0.73100
V1115       V  0.27831986  0.43334828  0.20716424     1.35240
V1116       V  0.28858985  0.41392979  0.24177807     1.35170
C1117       C  0.23714718  0.40612920  0.22930685     0.76340
C1118       C  0.33075809  0.43769832  0.21904331     0.76390
C1119       C  0.29414678  0.38271024  0.19783112     0.76260
C1120       C  0.27382296  0.46553237  0.25026640     0.76220
O1121       O  0.23802587  0.08693293  0.29379492    -0.72900
O1122       O  0.22828100  0.15174064  0.33027129    -0.73120
O1123       O  0.26910136  0.12743408  0.30783012    -0.72980
O1124       O  0.19697395  0.11216539  0.31564718    -0.72990
O1125       O  0.20555405  0.08933593  0.35066301    -0.72950
O1126       O  0.27685362  0.11164343  0.34675047    -0.72970
O1127       O  0.23262647  0.13098029  0.36729541    -0.72910
O1128       O  0.24950440  0.06850109  0.33050435    -0.73100
V1129       V  0.23329010  0.11911488  0.31250438     1.35240
V1130       V  0.24110682  0.10035092  0.34804122     1.35170
C1131       C  0.24539203  0.06654309  0.30610207     0.76340
C1132       C  0.22813631  0.15212544  0.35517882     0.76390
C1133       C  0.28480884  0.12392314  0.32662987     0.76260
C1134       C  0.18888949  0.09822755  0.33445596     0.76220
O1135       O  0.43905879  0.24932889  0.29661642    -0.72900
O1136       O  0.37907602  0.20811816  0.31557734    -0.73120
O1137       O  0.42159066  0.22582146  0.34051564    -0.72980
O1138       O  0.39509589  0.23214426  0.27187196    -0.72990
O1139       O  0.41796701  0.19841831  0.25917455    -0.72950
O1140       O  0.44031856  0.18889862  0.33034454    -0.72970
O1141       O  0.39918045  0.17334157  0.30124917    -0.72910
O1142       O  0.46024427  0.21337262  0.28800004    -0.73100
V1143       V  0.40921540  0.22827262  0.30581344     1.35240
V1144       V  0.42915857  0.19423997  0.29485940     1.35170
C1145       C  0.46033518  0.23806333  0.29010338     0.76340
C1146       C  0.37891894  0.18362573  0.31107689     0.76390
C1147       C  0.43421421  0.20577839  0.34762732     0.76260
C1148       C  0.40116994  0.21608426  0.25409118     0.76220
O1149       O  0.07613323  0.28748339  0.25407302    -0.72900
O1150       O  0.14095374  0.32285916  0.24187768    -0.73120
O1151       O  0.11784345  0.30087155  0.28351638    -0.72980
O1152       O  0.10012792  0.30878685  0.21212558    -0.72990
O1153       O  0.07769248  0.34385282  0.22141949    -0.72950
O1154       O  0.10372380  0.34033830  0.29158481    -0.72970
O1155       O  0.12074547  0.36020577  0.24614179    -0.72910
O1156       O  0.05901748  0.32444468  0.26669271    -0.73100
V1157       V  0.10833994  0.30562018  0.24808966     1.35240
V1158       V  0.09049154  0.34146719  0.25643728     1.35170
C1159       C  0.05643987  0.30012494  0.26255600     0.76340
C1160       C  0.14154384  0.34774008  0.24127154     0.76390
C1161       C  0.11572649  0.31988827  0.29917467     0.76260
C1162       C  0.08592807  0.32757142  0.20450312     0.76220
O1163       O  0.24433346  0.29252895  0.45235470    -0.72900
O1164       O  0.20358112  0.30943603  0.39113589    -0.73120
O1165       O  0.21920670  0.33513153  0.43388361    -0.72980
O1166       O  0.22951740  0.26692214  0.40789564    -0.72990
O1167       O  0.19572301  0.25258435  0.42960445    -0.72950
O1168       O  0.18254540  0.32317302  0.45207797    -0.72970
O1169       O  0.16915518  0.29358620  0.41072091    -0.72910
O1170       O  0.20829060  0.28183806  0.47239767    -0.73100
V1171       V  0.22360026  0.30061374  0.42180422     1.35240
V1172       V  0.18968647  0.28798597  0.44094703     1.35170
C1173       C  0.23276542  0.28538607  0.47330814     0.76340
C1174       C  0.17926724  0.30399337  0.39069842     0.76390
C1175       C  0.19862678  0.34125978  0.44606746     0.76260
C1176       C  0.21406910  0.24837251  0.41327654     0.76220
O1177       O  0.74714848  0.29026652  0.09781019    -0.72900
O1178       O  0.70697521  0.30685729  0.15905273    -0.73120
O1179       O  0.73148347  0.26418246  0.14167932    -0.72980
O1180       O  0.72331292  0.33303472  0.11670913    -0.72990
O1181       O  0.68801493  0.32181296  0.09558178    -0.72950
O1182       O  0.69543271  0.25204798  0.12235748    -0.72970
O1183       O  0.67142061  0.29610264  0.13812066    -0.72910
O1184       O  0.71129144  0.27799996  0.07831906    -0.73100
V1185       V  0.72662447  0.29821788  0.12831018     1.35240
V1186       V  0.69232113  0.28706246  0.10888244     1.35170
C1187       C  0.73564665  0.28235197  0.07716002     0.76340
C1188       C  0.68216853  0.30461198  0.15871650     0.76390
C1189       C  0.71415539  0.24694972  0.13797957     0.76260
C1190       C  0.70413917  0.33946482  0.10252364     0.76220
O1191       O  0.60232597  0.33703860  0.25596402    -0.72900
O1192       O  0.57625752  0.34289355  0.32617307    -0.73120
O1193       O  0.61828971  0.36071925  0.30022913    -0.72980
O1194       O  0.55884020  0.31983230  0.28221297    -0.72990
O1195       O  0.57955480  0.28418959  0.29308513    -0.72950
O1196       O  0.63968444  0.32535216  0.31075862    -0.72970
O1197       O  0.59765624  0.30743585  0.33637233    -0.72910
O1198       O  0.62299575  0.30151585  0.26756351    -0.73100
V1199       V  0.58922259  0.33936450  0.29119177     1.35240
V1200       V  0.60944370  0.30525698  0.30159962     1.35170
C1201       C  0.61850669  0.31888999  0.25057350     0.76340
C1202       C  0.58335380  0.32631243  0.34336069     0.76390
C1203       C  0.63906034  0.35016324  0.30865521     0.76260
C1204       C  0.55846995  0.29528906  0.28578657     0.76220
O1205       O  0.77522887  0.11748526  0.21495806    -0.72900
O1206       O  0.70557155  0.09060836  0.20722552    -0.73120
O1207       O  0.73123818  0.13332339  0.19081779    -0.72980
O1208       O  0.74948428  0.07341255  0.23062094    -0.72990
O1209       O  0.73621062  0.09244404  0.26635875    -0.72950
O1210       O  0.72143102  0.15443904  0.22655737    -0.72970
O1211       O  0.69398155  0.11239103  0.24199301    -0.72910
O1212       O  0.76316653  0.13589217  0.25151939    -0.73100
V1213       V  0.74027018  0.10398186  0.21166918     1.35240
V1214       V  0.72899333  0.12327098  0.24599848     1.35170
C1215       C  0.78038420  0.13251215  0.23412552     0.76340
C1216       C  0.68772677  0.09792989  0.22296560     0.76390
C1217       C  0.72371787  0.15419438  0.20175864     0.76260
C1218       C  0.74487331  0.07205962  0.25492819     0.76220
O1219       O  0.91049449  0.20964255  0.29816196    -0.72900
O1220       O  0.93609494  0.20019441  0.22818672    -0.73120
O1221       O  0.95419525  0.22432843  0.27127084    -0.72980
O1222       O  0.89373021  0.18472229  0.25488945    -0.72990
O1223       O  0.87287192  0.22039568  0.24423519    -0.72950
O1224       O  0.93508654  0.26003133  0.25789879    -0.72970
O1225       O  0.91470637  0.23516185  0.21636268    -0.72910
O1226       O  0.89192411  0.24593679  0.28548778    -0.73100
V1227       V  0.92334801  0.20548030  0.26303004     1.35240
V1228       V  0.90414997  0.23975799  0.25132955     1.35170
C1229       C  0.89563239  0.22900608  0.30311339     0.76340
C1230       C  0.92877397  0.21581760  0.21020960     0.76390
C1231       C  0.95557784  0.24854812  0.26621861     0.76260
C1232       C  0.87299804  0.19563423  0.24691761     0.76220
O1233       O  0.77075292  0.25327835  0.45943894    -0.72900
O1234       O  0.80976191  0.24132121  0.39675182    -0.73120
O1235       O  0.79592237  0.21239760  0.43821329    -0.72980
O1236       O  0.78391151  0.28195937  0.41707913    -0.72990
O1237       O  0.82100401  0.29427879  0.43401984    -0.72950
O1238       O  0.83024708  0.22439870  0.46046542    -0.72970
O1239       O  0.84572403  0.25065299  0.41771597    -0.72910
O1240       O  0.80617946  0.26779462  0.47819189    -0.73100
V1241       V  0.79074242  0.24754315  0.42833222     1.35240
V1242       V  0.82506646  0.25920287  0.44733704     1.35170
C1243       C  0.78207923  0.26217612  0.47971982     0.76340
C1244       C  0.83455391  0.24339987  0.39685858     0.76390
C1245       C  0.81496101  0.20630324  0.45276445     0.76260
C1246       C  0.80091490  0.29962929  0.42023094     0.76220
O1247       O  0.77468738  0.45206719  0.29082127    -0.72900
O1248       O  0.79102136  0.39168719  0.33232917    -0.73120
O1249       O  0.74858195  0.40888283  0.30751621    -0.72980
O1250       O  0.81752530  0.43360233  0.31504664    -0.72990
O1251       O  0.80673764  0.45534660  0.35007805    -0.72950
O1252       O  0.73646498  0.42933814  0.34295056    -0.72970
O1253       O  0.78025522  0.41337757  0.36748921    -0.72910
O1254       O  0.76298167  0.47267338  0.32623570    -0.73100
V1255       V  0.78266347  0.42210564  0.31205892     1.35240
V1256       V  0.77172184  0.44239596  0.34593979     1.35170
C1257       C  0.76673346  0.47299557  0.30174233     0.76340
C1258       C  0.78827486  0.39245767  0.35703842     0.76390
C1259       C  0.73126117  0.41337850  0.32453943     0.76260
C1260       C  0.82424901  0.44802550  0.33394402     0.76220
O1261       O  0.83424896  0.75203873  0.11876386    -0.72900
O1262       O  0.83700566  0.82377513  0.09722838    -0.73120
O1263       O  0.85483432  0.79638782  0.13828093    -0.72980
O1264       O  0.81686793  0.77973731  0.07649713    -0.72990
O1265       O  0.78038948  0.79008800  0.09599755    -0.72950
O1266       O  0.81811943  0.80050882  0.15962462    -0.72970
O1267       O  0.80204801  0.83145509  0.12040495    -0.72910
O1268       O  0.79589019  0.75948157  0.13598821    -0.73100
V1269       V  0.83501577  0.78801457  0.10795589     1.35240
V1270       V  0.79977933  0.79521929  0.12753329     1.35170
C1271       C  0.81451189  0.74387868  0.13151317     0.76340
C1272       C  0.82044914  0.84000752  0.10625159     0.76390
C1273       C  0.84298492  0.80073914  0.15957979     0.76260
C1274       C  0.79231581  0.78310468  0.07532593     0.76220
O1275       O  0.77624733  0.92510348  0.34492652    -0.72900
O1276       O  0.70590156  0.94963709  0.35473564    -0.73120
O1277       O  0.73275398  0.90683786  0.36851712    -0.72980
O1278       O  0.74908631  0.96938791  0.33186176    -0.72990
O1279       O  0.73824600  0.95106026  0.29493808    -0.72950
O1280       O  0.72066317  0.88834051  0.33206328    -0.72970
O1281       O  0.69506034  0.93150097  0.31770045    -0.72910
O1282       O  0.76371434  0.90643643  0.30867539    -0.73100
V1283       V  0.74093523  0.93751003  0.34923000     1.35240
V1284       V  0.72979236  0.91982739  0.31399221     1.35170
C1285       C  0.78127316  0.91011552  0.32567457     0.76340
C1286       C  0.68835312  0.94370500  0.33809188     0.76390
C1287       C  0.72339861  0.88714710  0.35678115     0.76260
C1288       C  0.74561249  0.97133022  0.30739362     0.76220
O1289       O  0.91427704  0.83528069  0.26112360    -0.72900
O1290       O  0.93826768  0.84589645  0.33148252    -0.73120
O1291       O  0.95767473  0.82147786  0.28896161    -0.72980
O1292       O  0.89616583  0.86045905  0.30390986    -0.72990
O1293       O  0.87575191  0.82454978  0.31461941    -0.72950
O1294       O  0.93855981  0.78568756  0.30207311    -0.72970
O1295       O  0.91731729  0.81066509  0.34328272    -0.72910
O1296       O  0.89587076  0.79895753  0.27385165    -0.73100
V1297       V  0.92632208  0.84003595  0.29648274     1.35240
V1298       V  0.90738611  0.80561513  0.30815978     1.35170
C1299       C  0.89993839  0.81556433  0.25599604     0.76340
C1300       C  0.93081319  0.83039766  0.34949570     0.76390
C1301       C  0.95900441  0.79717524  0.29368766     0.76260
C1302       C  0.87551277  0.84927402  0.31174530     0.76220
O1303       O  0.77366282  0.59197451  0.25568423    -0.72900
O1304       O  0.79480217  0.65124345  0.21484188    -0.73120
O1305       O  0.75027713  0.63659900  0.23845354    -0.72980
O1306       O  0.81805898  0.60806114  0.23261928    -0.72990
O1307       O  0.80761203  0.58973349  0.19557051    -0.72950
O1308       O  0.73713384  0.61418135  0.20462674    -0.72970
O1309       O  0.78027562  0.63176355  0.17981460    -0.72910
O1310       O  0.76463360  0.57107586  0.21965957    -0.73100
V1311       V  0.78380722  0.62151018  0.23479308     1.35240
V1312       V  0.77251367  0.60199524  0.20063064     1.35170
C1313       C  0.76690857  0.57084907  0.24433484     0.76340
C1314       C  0.79118864  0.65141647  0.19021548     0.76390
C1315       C  0.73227646  0.63081162  0.22251043     0.76260
C1316       C  0.82491638  0.59530449  0.21260261     0.76220
O1317       O  0.67626992  0.71559376  0.45258663    -0.72900
O1318       O  0.68518891  0.78689594  0.43040772    -0.73120
O1319       O  0.66068597  0.74448407  0.41126371    -0.72980
O1320       O  0.70002274  0.75810582  0.47283018    -0.72990
O1321       O  0.73627389  0.74973347  0.45208195    -0.72950
O1322       O  0.69582583  0.73079184  0.39139776    -0.72970
O1323       O  0.71939903  0.77458840  0.40804827    -0.72910
O1324       O  0.71339524  0.70593207  0.43398284    -0.73100
V1325       V  0.68126856  0.75114041  0.44148696     1.35240
V1326       V  0.71561459  0.74060718  0.42186398     1.35170
C1327       C  0.69342498  0.69857883  0.44650826     0.76340
C1328       C  0.70316541  0.79221694  0.41402936     0.76390
C1329       C  0.67121189  0.73469203  0.39108960     0.76260
C1330       C  0.72471578  0.75601436  0.47328530     0.76220
O1331       O  0.59713791  0.69236885  0.29259487    -0.72900
O1332       O  0.57014356  0.68479519  0.22297587    -0.73120
O1333       O  0.61460548  0.67139208  0.24761415    -0.72980
O1334       O  0.55128786  0.70523559  0.26748062    -0.72990
O1335       O  0.56729276  0.74263319  0.25467032    -0.72950
O1336       O  0.63255744  0.70927860  0.23977410    -0.72970
O1337       O  0.58942805  0.72127241  0.21221424    -0.72910
O1338       O  0.61108791  0.73138813  0.28232408    -0.73100
V1339       V  0.58354213  0.68920506  0.25764615     1.35240
V1340       V  0.59971265  0.72544778  0.24752957     1.35170
C1341       C  0.60928129  0.71315230  0.29895766     0.76340
C1342       C  0.57598761  0.70158118  0.20555008     0.76390
C1343       C  0.63442843  0.68447115  0.24054322     0.76260
C1344       C  0.54789731  0.72940195  0.26291166     0.76220
C1345       C  0.63070546  0.74108448  0.36400624    -0.14470
C1346       C  0.65476170  0.72806579  0.36802027     0.07680
C1347       C  0.66249671  0.70857394  0.35011932    -0.14470
C1348       C  0.64656101  0.70240144  0.32853099    -0.14470
C1349       C  0.62291890  0.71593738  0.32426029     0.07680
C1350       C  0.61516460  0.73539174  0.34206866    -0.14470
H1351       H  0.62427884  0.75625535  0.37744261     0.11660
H1352       H  0.68084377  0.69816170  0.35280347     0.11660
H1353       H  0.65322154  0.68784827  0.31452547     0.11660
H1354       H  0.59734748  0.74651679  0.33869870     0.11660
C1355       C  0.68297276  0.63124331  0.22145740    -0.14470
C1356       C  0.70688033  0.64444734  0.22471548     0.07680
C1357       C  0.70672962  0.67113384  0.23172090    -0.14470
C1358       C  0.68312953  0.68436168  0.23592405    -0.14470
C1359       C  0.65919587  0.67097940  0.23385178     0.07680
C1360       C  0.65926340  0.64434718  0.22636141    -0.14470
H1361       H  0.68268686  0.61065932  0.21613551     0.11660
H1362       H  0.72500347  0.68174562  0.23416101     0.11660
H1363       H  0.68365161  0.70482974  0.24166950     0.11660
H1364       H  0.64099477  0.63363206  0.22449491     0.11660
C1365       C  0.83037923  0.90571120  0.32989810    -0.14470
C1366       C  0.80584710  0.89504078  0.32348827     0.07680
C1367       C  0.80439909  0.86904302  0.31431042    -0.14470
C1368       C  0.82700948  0.85394816  0.31135633    -0.14470
C1369       C  0.85163741  0.86477862  0.31682362     0.07680
C1370       C  0.85323166  0.89078093  0.32612620    -0.14470
H1371       H  0.83189654  0.92567514  0.33704604     0.11660
H1372       H  0.78560946  0.86029998  0.30950574     0.11660
H1373       H  0.82530648  0.83404530  0.30405235     0.11660
H1374       H  0.87213090  0.89946947  0.33053255     0.11660
C1375       C  0.71442471  0.86396301  0.39937581    -0.14470
C1376       C  0.71596800  0.86342339  0.37172418     0.07680
C1377       C  0.71088983  0.83984632  0.35850836    -0.14470
C1378       C  0.70561574  0.81701006  0.37263642    -0.14470
C1379       C  0.70477501  0.81739343  0.40017825     0.07680
C1380       C  0.70865003  0.84107281  0.41353872    -0.14470
H1381       H  0.71808748  0.88197345  0.41005609     0.11660
H1382       H  0.71184082  0.83884319  0.33728656     0.11660
H1383       H  0.70275718  0.79877407  0.36205615     0.11660
H1384       H  0.70839227  0.84159542  0.43479913     0.11660
C1385       C  0.82451501  0.71406191  0.16819362    -0.14470
C1386       C  0.81339911  0.71772820  0.14326870     0.07680
C1387       C  0.79606240  0.69892381  0.13324236    -0.14470
C1388       C  0.78949649  0.67687746  0.14823119    -0.14470
C1389       C  0.79958778  0.67378237  0.17377702     0.07680
C1390       C  0.81758812  0.69229348  0.18341040    -0.14470
H1391       H  0.83729745  0.72889451  0.17651744     0.11660
H1392       H  0.78670451  0.70193168  0.11437069     0.11660
H1393       H  0.77562065  0.66286340  0.14029068     0.11660
H1394       H  0.82582869  0.69026215  0.20291394     0.11660
C1395       C  0.84770627  0.79600891  0.20769214    -0.14470
C1396       C  0.85781537  0.80526744  0.18391055     0.07680
C1397       C  0.88227548  0.81813509  0.18362115    -0.14470
C1398       C  0.89622722  0.82202149  0.20705575    -0.14470
C1399       C  0.88620659  0.81224601  0.23077261     0.07680
C1400       C  0.86188653  0.79917554  0.23080389    -0.14470
H1401       H  0.82902495  0.78585517  0.20832999     0.11660
H1402       H  0.89037496  0.82543542  0.16535819     0.11660
H1403       H  0.91488230  0.83220763  0.20661408     0.11660
H1404       H  0.85355922  0.79168700  0.24889664     0.11660
C1405       C  0.76194094  0.52192611  0.30028881    -0.14470
C1406       C  0.76334512  0.49780159  0.28683885     0.07680
C1407       C  0.76364765  0.49799628  0.25929613    -0.14470
C1408       C  0.76341734  0.52180827  0.24553912    -0.14470
C1409       C  0.76334801  0.54595264  0.25902997     0.07680
C1410       C  0.76217148  0.54574364  0.28654539    -0.14470
H1411       H  0.76178396  0.52245443  0.32154709     0.11660
H1412       H  0.76471731  0.47977428  0.24839951     0.11660
H1413       H  0.76443499  0.52129378  0.22430385     0.11660
H1414       H  0.76210386  0.56398011  0.29746976     0.11660
C1415       C  0.77503681  0.32832017  0.39035504    -0.14470
C1416       C  0.79748032  0.32486776  0.40616527     0.07680
C1417       C  0.81710181  0.34429075  0.40583885    -0.14470
C1418       C  0.81437232  0.36648088  0.38965787    -0.14470
C1419       C  0.79230217  0.36911039  0.37333023     0.07680
C1420       C  0.77258736  0.35010176  0.37402300    -0.14470
H1421       H  0.75949340  0.31381688  0.39007621     0.11660
H1422       H  0.83464973  0.34209483  0.41764380     0.11660
H1423       H  0.82954497  0.38137949  0.38961070     0.11660
H1424       H  0.75515974  0.35221526  0.36199951     0.11660
C1425       C  0.85441633  0.23997942  0.32590639    -0.14470
C1426       C  0.88055582  0.23128865  0.32759144     0.07680
C1427       C  0.89132569  0.22543367  0.35221766    -0.14470
C1428       C  0.87629922  0.22928888  0.37496290    -0.14470
C1429       C  0.85015220  0.23814471  0.37314044     0.07680
C1430       C  0.83925609  0.24305056  0.34841488    -0.14470
H1431       H  0.84562578  0.24432049  0.30701190     0.11660
H1432       H  0.91141332  0.21866153  0.35387306     0.11660
H1433       H  0.88503746  0.22532769  0.39394922     0.11660
H1434       H  0.81923917  0.25000031  0.34653559     0.11660
C1435       C  0.75089490  0.02327731  0.25430923    -0.14470
C1436       C  0.74814735  0.04664635  0.26885198     0.07680
C1437       C  0.74653863  0.04501533  0.29631484    -0.14470
C1438       C  0.74701048  0.02051529  0.30886951    -0.14470
C1439       C  0.74858103  0.99712373  0.29419372     0.07680
C1440       C  0.75084501  0.99879808  0.26680935    -0.14470
H1441       H  0.75205750  0.02381770  0.23308212     0.11660
H1442       H  0.74435103  0.06261322  0.30803658     0.11660
H1443       H  0.74504195  0.01984475  0.33003497     0.11660
H1444       H  0.75206415  0.98115918  0.25500547     0.11660
C1445       C  0.82939798  0.13737263  0.23129113    -0.14470
C1446       C  0.80451235  0.14821854  0.23553646     0.07680
C1447       C  0.80225124  0.17494270  0.24203556    -0.14470
C1448       C  0.82450771  0.19060735  0.24469486    -0.14470
C1449       C  0.84950162  0.17965624  0.24156558     0.07680
C1450       C  0.85183195  0.15294099  0.23471175    -0.14470
H1451       H  0.83147978  0.11682417  0.22624005     0.11660
H1452       H  0.78311512  0.18372365  0.24511859     0.11660
H1453       H  0.82220421  0.21105254  0.25008423     0.11660
H1454       H  0.87100266  0.14410922  0.23213545     0.11660
C1455       C  0.68711838  0.35502081  0.31616841    -0.14470
C1456       C  0.66214427  0.36647807  0.31522845     0.07680
C1457       C  0.65969027  0.39376344  0.31938473    -0.14470
C1458       C  0.68199351  0.40934580  0.32383118    -0.14470
C1459       C  0.70696060  0.39783950  0.32352639     0.07680
C1460       C  0.70927641  0.37058890  0.31995962    -0.14470
H1461       H  0.68963775  0.33414358  0.31299178     0.11660
H1462       H  0.64057939  0.40306962  0.31884421     0.11660
H1463       H  0.67985994  0.43034928  0.32636854     0.11660
H1464       H  0.72844511  0.36135831  0.31965886     0.11660
C1465       C  0.70806738  0.19823011  0.14377304    -0.14470
C1466       C  0.71511871  0.22281703  0.15386242     0.07680
C1467       C  0.72334959  0.22479499  0.18015037    -0.14470
C1468       C  0.72490587  0.20258548  0.19606355    -0.14470
C1469       C  0.71892643  0.17783363  0.18579695     0.07680
C1470       C  0.71042654  0.17576196  0.15954552    -0.14470
H1471       H  0.70156061  0.19633256  0.12361675     0.11660
H1472       H  0.72854558  0.24367740  0.18845604     0.11660
H1473       H  0.73173004  0.20463979  0.21610956     0.11660
H1474       H  0.70575755  0.15675546  0.15123906     0.11660
C1475       C  0.63853865  0.31464223  0.17925927    -0.14470
C1476       C  0.66590337  0.31112565  0.18180032     0.07680
C1477       C  0.67731578  0.31246106  0.20677302    -0.14470
C1478       C  0.66157850  0.31587859  0.22888780    -0.14470
C1479       C  0.63423617  0.31859601  0.22644493     0.07680
C1480       C  0.62279564  0.31863957  0.20147562    -0.14470
H1481       H  0.62926827  0.31382739  0.16013713     0.11660
H1482       H  0.69826307  0.30982092  0.20931936     0.11660
H1483       H  0.67072584  0.31589401  0.24810901     0.11660
H1484       H  0.60173381  0.32056003  0.19927865     0.11660
C1485       C  0.00741335  0.30209624  0.26634236    -0.14470
C1486       C  0.03070094  0.28719074  0.26639600     0.07680
C1487       C  0.02896999  0.25978647  0.26835834    -0.14470
C1488       C  0.00448128  0.24747931  0.26961604    -0.14470
C1489       C  0.98114106  0.26225606  0.26839998     0.07680
C1490       C  0.98285027  0.28972949  0.26705750    -0.14470
H1491       H  0.00816320  0.32328649  0.26469185     0.11660
H1492       H  0.04655329  0.24782261  0.26846677     0.11660
H1493       H  0.00384919  0.22623874  0.27048048     0.11660
H1494       H  0.96523727  0.30159961  0.26601913     0.11660
C1495       C  0.12607764  0.29560496  0.33999624    -0.14470
C1496       C  0.12900377  0.31826867  0.32468904     0.07680
C1497       C  0.14850861  0.33663481  0.33125711    -0.14470
C1498       C  0.16542352  0.33192148  0.35247899    -0.14470
C1499       C  0.16251897  0.30911184  0.36768312     0.07680
C1500       C  0.14236482  0.29130485  0.36158647    -0.14470
H1501       H  0.11156182  0.28093637  0.33484127     0.11660
H1502       H  0.15152266  0.35387655  0.31915215     0.11660
H1503       H  0.18065041  0.34603622  0.35705807     0.11660
H1504       H  0.13972979  0.27360333  0.37310585     0.11660
C1505       C  0.50931945  0.23929288  0.28536879    -0.14470
C1506       C  0.48519332  0.25282608  0.28609790     0.07680
C1507       C  0.48543573  0.28033735  0.28447556    -0.14470
C1508       C  0.50928107  0.29400673  0.28291510    -0.14470
C1509       C  0.53343674  0.28050008  0.28337153     0.07680
C1510       C  0.53314625  0.25296340  0.28424033    -0.14470
H1511       H  0.50986038  0.21807149  0.28664270     0.11660
H1512       H  0.46723289  0.29131719  0.28494535     0.11660
H1513       H  0.50880553  0.31526165  0.28245474     0.11660
H1514       H  0.55135714  0.24199311  0.28471699     0.11660
C1515       C  0.32825873  0.12973088  0.30527314    -0.14470
C1516       C  0.31082105  0.13618573  0.32550734     0.07680
C1517       C  0.31617203  0.15789329  0.34161671    -0.14470
C1518       C  0.33833941  0.17348496  0.33701133    -0.14470
C1519       C  0.35574064  0.16715430  0.31661762     0.07680
C1520       C  0.35082286  0.14479533  0.30118272    -0.14470
H1521       H  0.32405082  0.11344811  0.29225884     0.11660
H1522       H  0.30245885  0.16356656  0.35685527     0.11660
H1523       H  0.34178812  0.19054783  0.34921529     0.11660
H1524       H  0.36391167  0.13957469  0.28525802     0.11660
C1525       C  0.21393132  0.17585499  0.39596653    -0.14470
C1526       C  0.22336217  0.17660614  0.36995709     0.07680
C1527       C  0.22913397  0.20092740  0.35850811    -0.14470
C1528       C  0.22622193  0.22400264  0.37294541    -0.14470
C1529       C  0.21687658  0.22335549  0.39893888     0.07680
C1530       C  0.21031611  0.19912879  0.41024023    -0.14470
H1531       H  0.20926698  0.15726965  0.40520368     0.11660
H1532       H  0.23650816  0.20206470  0.33858940     0.11660
H1533       H  0.23109304  0.24251088  0.36364021     0.11660
H1534       H  0.20298613  0.19817365  0.43017806     0.11660
C1535       C  0.21278691  0.36629572  0.24219337    -0.14470
C1536       C  0.21234993  0.39149949  0.23088705     0.07680
C1537       C  0.18861967  0.40170481  0.22145209    -0.14470
C1538       C  0.16541621  0.38724151  0.22444846    -0.14470
C1539       C  0.16595981  0.36213785  0.23606716     0.07680
C1540       C  0.18987476  0.35162582  0.24447272    -0.14470
H1541       H  0.23099642  0.35784725  0.24925682     0.11660
H1542       H  0.18793240  0.42100894  0.21254071     0.11660
H1543       H  0.14704267  0.39566400  0.21782178     0.11660
H1544       H  0.19071058  0.33244297  0.25365322     0.11660
C1545       C  0.30119760  0.31166914  0.17859190    -0.14470
C1546       C  0.30784072  0.31348346  0.15186714     0.07680
C1547       C  0.31129531  0.33826871  0.14044747    -0.14470
C1548       C  0.30700895  0.36096810  0.15546170    -0.14470
C1549       C  0.29999830  0.35904325  0.18218559     0.07680
C1550       C  0.29762140  0.33418387  0.19367372    -0.14470
H1551       H  0.29865195  0.29266134  0.18783540     0.11660
H1552       H  0.31637600  0.34004069  0.11987370     0.11660
H1553       H  0.30906126  0.38000656  0.14619672     0.11660
H1554       H  0.29219357  0.33212937  0.21413877     0.11660
C1555       C  0.38500468  0.22485397  0.18213222    -0.14470
C1556       C  0.35732548  0.22549861  0.18301877     0.07680
C1557       C  0.34465339  0.22107772  0.20704597    -0.14470
C1558       C  0.35928513  0.21726261  0.22988188    -0.14470
C1559       C  0.38683263  0.21721836  0.22909917     0.07680
C1560       C  0.39968533  0.22048513  0.20502931    -0.14470
H1561       H  0.39529946  0.22810295  0.16381323     0.11660
H1562       H  0.32343505  0.22141457  0.20836278     0.11660
H1563       H  0.34906596  0.21473303  0.24837709     0.11660
H1564       H  0.42092788  0.22071769  0.20413595     0.11660
C1565       C  0.27657891  0.25730384  0.00282847    -0.14470
C1566       C  0.24904727  0.25824469  0.00210557     0.07680
C1567       C  0.23520326  0.25918211  0.02605160    -0.14470
C1568       C  0.24845785  0.25818944  0.05010578    -0.14470
C1569       C  0.27593315  0.25670794  0.05086025     0.07680
C1570       C  0.28988589  0.25678449  0.02695402    -0.14470
H1571       H  0.28779066  0.25646042  0.98478438     0.11660
H1572       H  0.21395119  0.25973925  0.02624944     0.11660
H1573       H  0.23716349  0.25814582  0.06812174     0.11660
H1574       H  0.31110640  0.25548370  0.02687344     0.11660
C1575       C  0.21153014  0.36486770  0.89824096    -0.14470
C1576       C  0.21922592  0.36344860  0.87170605     0.07680
C1577       C  0.22413558  0.33888937  0.86044493    -0.14470
C1578       C  0.22221348  0.31619053  0.87559796    -0.14470
C1579       C  0.21471707  0.31749994  0.90214485     0.07680
C1580       C  0.20885264  0.34195122  0.91328129    -0.14470
H1581       H  0.20763796  0.38369661  0.90731537     0.11660
H1582       H  0.23027306  0.33730250  0.84014005     0.11660
H1583       H  0.22647464  0.29746002  0.86646317     0.11660
H1584       H  0.20291304  0.34335908  0.93364948     0.11660
C1585       C  0.35211532  0.39343867  0.81884504    -0.14470
C1586       C  0.35029909  0.36598726  0.81554330     0.07680
C1587       C  0.32564838  0.35392673  0.81729767    -0.14470
C1588       C  0.30316997  0.36905330  0.82116882    -0.14470
C1589       C  0.30490652  0.39643672  0.82393147     0.07680
C1590       C  0.32953802  0.40857234  0.82328822    -0.14470
H1591       H  0.37095308  0.40322529  0.81769108     0.11660
H1592       H  0.32363014  0.33290007  0.81483455     0.11660
H1593       H  0.28421940  0.35938171  0.82164589     0.11660
H1594       H  0.33117978  0.42968865  0.82518301     0.11660
C1595       C  0.28663924  0.28014529  0.52497198    -0.14470
C1596       C  0.27195230  0.28017730  0.54845631     0.07680
C1597       C  0.24448433  0.28056386  0.54679829    -0.14470
C1598       C  0.23199905  0.28134479  0.52232110    -0.14470
C1599       C  0.24663928  0.28226595  0.49883687     0.07680
C1600       C  0.27412831  0.28142550  0.50043153    -0.14470
H1601       H  0.30789040  0.28011425  0.52557888     0.11660
H1602       H  0.23262936  0.28072510  0.56444926     0.11660
H1603       H  0.21075575  0.28207723  0.52185407     0.11660
H1604       H  0.28594067  0.28211178  0.48276751     0.11660
C1605       C  0.33988384  0.31114428  0.70604133    -0.14470
C1606       C  0.35218315  0.30960062  0.68149192     0.07680
C1607       C  0.37964073  0.31297411  0.67998949    -0.14470
C1608       C  0.39453949  0.31727621  0.70276227    -0.14470
C1609       C  0.38218293  0.31765328  0.72730255     0.07680
C1610       C  0.35478605  0.31482495  0.72872275    -0.14470
H1611       H  0.31884850  0.30860166  0.70782192     0.11660
H1612       H  0.38961578  0.31196999  0.66124021     0.11660
H1613       H  0.41566078  0.31924629  0.70133345     0.11660
H1614       H  0.34492308  0.31511788  0.74757742     0.11660
C1615       C  0.12544273  0.24583579  0.84516124    -0.14470
C1616       C  0.12825506  0.22308827  0.82996832     0.07680
C1617       C  0.14724877  0.20436148  0.83701319    -0.14470
C1618       C  0.16389023  0.20884403  0.85848109    -0.14470
C1619       C  0.16119176  0.23176926  0.87351372     0.07680
C1620       C  0.14141948  0.24989040  0.86706092    -0.14470
H1621       H  0.11134049  0.26078233  0.83963301     0.11660
H1622       H  0.15017887  0.18703854  0.82503157     0.11660
H1623       H  0.17886482  0.19452385  0.86329438     0.11660
H1624       H  0.13900221  0.26771228  0.87841142     0.11660
C1625       C  0.16299258  0.14827003  0.73580181    -0.14470
C1626       C  0.16482476  0.17547526  0.74079554     0.07680
C1627       C  0.18963229  0.18734274  0.74086655    -0.14470
C1628       C  0.21215954  0.17225758  0.73708949    -0.14470
C1629       C  0.21041255  0.14508978  0.73262373     0.07680
C1630       C  0.18566591  0.13319245  0.73145990    -0.14470
H1631       H  0.14405372  0.13861805  0.73551201     0.11660
H1632       H  0.19170439  0.20817470  0.74459605     0.11660
H1633       H  0.23115647  0.18180777  0.73795111     0.11660
H1634       H  0.18395454  0.11225082  0.72820236     0.11660
C1635       C  0.28896222  0.20160780  0.69280809    -0.14470
C1636       C  0.29684213  0.17699343  0.68356799     0.07680
C1637       C  0.30797724  0.17501194  0.65830696    -0.14470
C1638       C  0.31122524  0.19745329  0.64257047    -0.14470
C1639       C  0.30243909  0.22193296  0.65157590     0.07680
C1640       C  0.29140566  0.22374443  0.67686434    -0.14470
H1641       H  0.28012408  0.20359279  0.71205539     0.11660
H1642       H  0.31417523  0.15610889  0.65080107     0.11660
H1643       H  0.31989672  0.19559851  0.62324819     0.11660
H1644       H  0.28477984  0.24247882  0.68445155     0.11660
C1645       C  0.78947084  0.28199641  0.02556250    -0.14470
C1646       C  0.77475974  0.28229451  0.00211664     0.07680
C1647       C  0.74733432  0.28063441  0.00367525    -0.14470
C1648       C  0.73486025  0.27927815  0.02812322    -0.14470
C1649       C  0.74948168  0.28006366  0.05161210     0.07680
C1650       C  0.77695736  0.28115676  0.05005541    -0.14470
H1651       H  0.81067832  0.28339606  0.02501424     0.11660
H1652       H  0.73549321  0.28081809  0.98600893     0.11660
H1653       H  0.71361435  0.27867213  0.02861610     0.11660
H1654       H  0.78873465  0.28192499  0.06774635     0.11660
C1655       C  0.98464167  0.25765587  0.76644226    -0.14470
C1656       C  0.98391415  0.28521531  0.76573700     0.07680
C1657       C  0.00780430  0.29910511  0.76678243    -0.14470
C1658       C  0.03186022  0.28577516  0.76747886    -0.14470
C1659       C  0.03262504  0.25821725  0.76765086     0.07680
C1660       C  0.00871481  0.24431644  0.76763847    -0.14470
H1661       H  0.96662419  0.24639982  0.76563603     0.11660
H1662       H  0.00796741  0.32036064  0.76611750     0.11660
H1663       H  0.04988783  0.29704730  0.76739842     0.11660
H1664       H  0.00862218  0.22305192  0.76754881     0.11660
C1665       C  0.89414275  0.32449518  0.84672435    -0.14470
C1666       C  0.88329949  0.31797626  0.82230721     0.07680
C1667       C  0.85715058  0.30921221  0.82101011    -0.14470
C1668       C  0.84211828  0.30663387  0.84371445    -0.14470
C1669       C  0.85316018  0.31212657  0.86825203     0.07680
C1670       C  0.87927116  0.32115334  0.86964344    -0.14470
H1671       H  0.91420764  0.33138659  0.84811203     0.11660
H1672       H  0.84826108  0.30440227  0.80228874     0.11660
H1673       H  0.82214303  0.29949806  0.84216278     0.11660
H1674       H  0.88815725  0.32553611  0.88846050     0.11660
C1675       C  0.80591047  0.17732879  0.89912995    -0.14470
C1676       C  0.79819030  0.17880831  0.87256466     0.07680
C1677       C  0.79570061  0.20345802  0.86065418    -0.14470
C1678       C  0.79966686  0.22621153  0.87525054    -0.14470
C1679       C  0.80676211  0.22482380  0.90187863     0.07680
C1680       C  0.81050904  0.20026643  0.91365748    -0.14470
H1681       H  0.80812148  0.15845872  0.90870013     0.11660
H1682       H  0.78980414  0.20517864  0.84028660     0.11660
H1683       H  0.79687228  0.24507471  0.86577533     0.11660
H1684       H  0.81591236  0.19885824  0.93417985     0.11660
C1685       C  0.76942323  0.26366193  0.55291352    -0.14470
C1686       C  0.74194507  0.26209047  0.55391721     0.07680
C1687       C  0.72763033  0.26263670  0.53028900    -0.14470
C1688       C  0.74058490  0.26351039  0.50609676    -0.14470
C1689       C  0.76809176  0.26440092  0.50506723     0.07680
C1690       C  0.78235895  0.26507128  0.52872585    -0.14470
H1691       H  0.78092679  0.26335170  0.57080069     0.11660
H1692       H  0.70640685  0.26137056  0.53045798     0.11660
H1693       H  0.72911128  0.26294182  0.48819761     0.11660
H1694       H  0.80361413  0.26557762  0.52853706     0.11660
C1695       C  0.80623165  0.37157017  0.72612599    -0.14470
C1696       C  0.80702493  0.39907694  0.72759862     0.07680
C1697       C  0.83100861  0.41168142  0.73217610    -0.14470
C1698       C  0.85381641  0.39674270  0.73616644    -0.14470
C1699       C  0.85294376  0.36906219  0.73519029     0.07680
C1700       C  0.82898254  0.35670377  0.72961767    -0.14470
H1701       H  0.78779225  0.36154702  0.72262234     0.11660
H1702       H  0.83189660  0.43288021  0.73361590     0.11660
H1703       H  0.87204846  0.40682577  0.74038761     0.11660
H1704       H  0.82764372  0.33549948  0.72872394     0.11660
C1705       C  0.73293920  0.36197217  0.65573954    -0.14470
C1706       C  0.71859829  0.36693114  0.67878872     0.07680
C1707       C  0.69822715  0.34981652  0.68595607    -0.14470
C1708       C  0.69266755  0.32777283  0.67053352    -0.14470
C1709       C  0.70774086  0.32237947  0.64811784     0.07680
C1710       C  0.72784935  0.33960165  0.64078199    -0.14470
H1711       H  0.74877185  0.37488797  0.64983281     0.11660
H1712       H  0.68679919  0.35338204  0.70352799     0.11660
H1713       H  0.67758818  0.31416348  0.67686646     0.11660
H1714       H  0.74010634  0.33528311  0.62394419     0.11660
C1715       C  0.53036146  0.28571686  0.78962454    -0.14470
C1716       C  0.53170328  0.25821897  0.79053338     0.07680
C1717       C  0.50815116  0.24374198  0.78920931    -0.14470
C1718       C  0.48379380  0.25645545  0.78799402    -0.14470
C1719       C  0.48240859  0.28395902  0.78757954     0.07680
C1720       C  0.50600421  0.29843234  0.78792647    -0.14470
H1721       H  0.54809840  0.29739884  0.79058889     0.11660
H1722       H  0.50847257  0.22249171  0.78997358     0.11660
H1723       H  0.46603354  0.24476759  0.78787577     0.11660
H1724       H  0.50562373  0.31969397  0.78786776     0.11660
C1725       C  0.62389223  0.21755049  0.70961092    -0.14470
C1726       C  0.63194258  0.22979544  0.73292053     0.07680
C1727       C  0.65532399  0.24454319  0.73302826    -0.14470
C1728       C  0.67051010  0.24683724  0.71044459    -0.14470
C1729       C  0.66232588  0.23498236  0.68711447     0.07680
C1730       C  0.63881119  0.22051007  0.68668703    -0.14470
H1731       H  0.60607843  0.20595973  0.70908443     0.11660
H1732       H  0.66220968  0.25400340  0.75078314     0.11660
H1733       H  0.68836193  0.25839241  0.71104680     0.11660
H1734       H  0.63217199  0.21131822  0.66869834     0.11660
C1735       C  0.70092566  0.16246602  0.84511306    -0.14470
C1736       C  0.70785850  0.14323308  0.82659361     0.07680
C1737       C  0.69244445  0.14006412  0.80404535    -0.14470
C1738       C  0.67030551  0.15573418  0.80009468    -0.14470
C1739       C  0.66375419  0.17556296  0.81811449     0.07680
C1740       C  0.67917123  0.17880122  0.84072923    -0.14470
H1741       H  0.71306254  0.16566075  0.86228801     0.11660
H1742       H  0.69784138  0.12575481  0.78926727     0.11660
H1743       H  0.65868945  0.15288426  0.78250120     0.11660
H1744       H  0.67432601  0.19381948  0.85497324     0.11660
C1745       C  0.24687754  0.99276744  0.29414274    -0.14470
C1746       C  0.24794040  0.99151620  0.26661288     0.07680
C1747       C  0.24993618  0.01517637  0.25236565    -0.14470
C1748       C  0.24973162  0.03947369  0.26518020    -0.14470
C1749       C  0.24804386  0.04078788  0.29263387     0.07680
C1750       C  0.24719972  0.01714699  0.30702704    -0.14470
H1751       H  0.24521374  0.97496592  0.30566669     0.11660
H1752       H  0.25061047  0.01500652  0.23111122     0.11660
H1753       H  0.25044339  0.05727340  0.25354614     0.11660
H1754       H  0.24575269  0.01751718  0.32823878     0.11660
C1755       C  0.49465885  0.78093559  0.26572046    -0.14470
C1756       C  0.47162186  0.76589282  0.26290299     0.07680
C1757       C  0.47378235  0.73840207  0.26226088    -0.14470
C1758       C  0.49857178  0.72635176  0.26376699    -0.14470
C1759       C  0.52160078  0.74161557  0.26543337     0.07680
C1760       C  0.51928522  0.76898747  0.26672859    -0.14470
H1761       H  0.49380401  0.80217867  0.26619562     0.11660
H1762       H  0.45644068  0.72630274  0.26007574     0.11660
H1763       H  0.49980371  0.70516389  0.26245181     0.11660
H1764       H  0.53661251  0.78125695  0.26793166     0.11660
C1765       C  0.34517989  0.87584661  0.22224034    -0.14470
C1766       C  0.34185001  0.85047333  0.23276694     0.07680
C1767       C  0.31701551  0.84257667  0.24131772    -0.14470
C1768       C  0.29607747  0.86017721  0.24051302    -0.14470
C1769       C  0.29943339  0.88579342  0.23058452     0.07680
C1770       C  0.32397217  0.89328174  0.22074019    -0.14470
H1771       H  0.36431021  0.88228432  0.21554541     0.11660
H1772       H  0.31407939  0.82324626  0.24972172     0.11660
H1773       H  0.27713696  0.85370351  0.24770751     0.11660
H1774       H  0.32690246  0.91274714  0.21268100     0.11660
C1775       C  0.33285003  0.79273188  0.34444802    -0.14470
C1776       C  0.34466453  0.80053446  0.36801713     0.07680
C1777       C  0.37085362  0.80935125  0.36771154    -0.14470
C1778       C  0.38491333  0.81056969  0.34405810    -0.14470
C1779       C  0.37324871  0.80199855  0.32064587     0.07680
C1780       C  0.34712405  0.79309974  0.32107102    -0.14470
H1781       H  0.31281583  0.78558940  0.34424539     0.11660
H1782       H  0.38036296  0.81537788  0.38575080     0.11660
H1783       H  0.40498093  0.81758896  0.34412914     0.11660
H1784       H  0.33760738  0.78668257  0.30315925     0.11660
C1785       C  0.23192173  0.83347831  0.14707418    -0.14470
C1786       C  0.20841610  0.81924194  0.14776292     0.07680
C1787       C  0.18807599  0.82749758  0.16450226    -0.14470
C1788       C  0.19162284  0.84928835  0.18099820    -0.14470
C1789       C  0.21524782  0.86342470  0.18026309     0.07680
C1790       C  0.23511156  0.85564767  0.16280613    -0.14470
H1791       H  0.24800402  0.82712076  0.13469237     0.11660
H1792       H  0.17002589  0.81632247  0.16575361     0.11660
H1793       H  0.17602704  0.85510893  0.19422068     0.11660
H1794       H  0.25352140  0.86627886  0.16199433     0.11660
C1795       C  0.26882304  0.53878881  0.26308510    -0.14470
C1796       C  0.26858480  0.53985854  0.29061932     0.07680
C1797       C  0.26864490  0.51612884  0.30485292    -0.14470
C1798       C  0.26985376  0.49190412  0.29185727    -0.14470
C1799       C  0.27049602  0.49085707  0.26432330     0.07680
C1800       C  0.26950424  0.51456821  0.25009044    -0.14470
H1801       H  0.26884118  0.55669057  0.25158905     0.11660
H1802       H  0.26867448  0.51629873  0.32611814     0.11660
H1803       H  0.27062959  0.47401942  0.30335172     0.11660
H1804       H  0.27013527  0.51445404  0.22883353     0.11660
C1805       C  0.29959572  0.67170076  0.39849014    -0.14470
C1806       C  0.28953853  0.67327807  0.37273735     0.07680
C1807       C  0.28243810  0.69782474  0.36261434    -0.14470
C1808       C  0.28471702  0.72029146  0.37809087    -0.14470
C1809       C  0.29479802  0.71884299  0.40378135     0.07680
C1810       C  0.30266491  0.69442912  0.41376595    -0.14470
H1811       H  0.30525137  0.65290770  0.40670292     0.11660
H1812       H  0.27453272  0.69956505  0.34293929     0.11660
H1813       H  0.27891817  0.73901083  0.36978095     0.11660
H1814       H  0.31065312  0.69289647  0.43341690     0.11660
C1815       C  0.00853320  0.74199353  0.28813588    -0.14470
C1816       C  0.03255173  0.75571326  0.28795961     0.07680
C1817       C  0.03207776  0.78326415  0.28826600    -0.14470
C1818       C  0.00808861  0.79674591  0.28918301    -0.14470
C1819       C  0.98415026  0.78292835  0.29032487     0.07680
C1820       C  0.98464841  0.75542504  0.28954181    -0.14470
H1821       H  0.00817550  0.72073034  0.28811908     0.11660
H1822       H  0.05021541  0.79435457  0.28826869     0.11660
H1823       H  0.00831560  0.81799805  0.28988239     0.11660
H1824       H  0.96656995  0.74426007  0.29035244     0.11660
C1825       C  0.11857231  0.72129213  0.20320703    -0.14470
C1826       C  0.13105012  0.72021883  0.22768177     0.07680
C1827       C  0.15846815  0.72269163  0.22905541    -0.14470
C1828       C  0.17327098  0.72685889  0.20645749    -0.14470
C1829       C  0.16090131  0.72911869  0.18198973     0.07680
C1830       C  0.13341791  0.72597878  0.18047127    -0.14470
H1831       H  0.09742631  0.71956587  0.20182480     0.11660
H1832       H  0.16845120  0.72175015  0.24783222     0.11660
H1833       H  0.19434118  0.72906418  0.20827051     0.11660
H1834       H  0.12338554  0.72749745  0.16178175     0.11660
C1835       C  0.19088884  0.63405689  0.29848346    -0.14470
C1836       C  0.20372043  0.63417206  0.32285545     0.07680
C1837       C  0.19421778  0.65033903  0.34306367    -0.14470
C1838       C  0.17285537  0.66708178  0.33850214    -0.14470
C1839       C  0.16038528  0.66721126  0.31394100     0.07680
C1840       C  0.16908110  0.65008152  0.29423028    -0.14470
H1841       H  0.19824574  0.62210975  0.28250058     0.11660
H1842       H  0.20428422  0.65117435  0.36178519     0.11660
H1843       H  0.16613228  0.67995643  0.35402826     0.11660
H1844       H  0.15957537  0.64985045  0.27519310     0.11660
C1845       C  0.26944561  0.99691495  0.76522105    -0.14470
C1846       C  0.27046220  0.99565882  0.79272632     0.07680
C1847       C  0.27052005  0.01936699  0.80702705    -0.14470
C1848       C  0.27049681  0.04370370  0.79414906    -0.14470
C1849       C  0.26993241  0.04497399  0.76663710     0.07680
C1850       C  0.26894380  0.02128039  0.75234419    -0.14470
H1851       H  0.26944045  0.97908421  0.75364971     0.11660
H1852       H  0.27146976  0.01914488  0.82827107     0.11660
H1853       H  0.27134736  0.06151654  0.80571929     0.11660
H1854       H  0.26869151  0.02154005  0.73108220     0.11660
C1855       C  0.18993416  0.85409167  0.81517331    -0.14470
C1856       C  0.16551445  0.86552876  0.82036850     0.07680
C1857       C  0.16446290  0.89177208  0.82910925    -0.14470
C1858       C  0.18754665  0.90643175  0.83223143    -0.14470
C1859       C  0.21182369  0.89522027  0.82586024     0.07680
C1860       C  0.21281126  0.86887966  0.81760995    -0.14470
H1861       H  0.19128106  0.83400076  0.80833254     0.11660
H1862       H  0.14576850  0.90098666  0.83331775     0.11660
H1863       H  0.18638482  0.92662798  0.83877245     0.11660
H1864       H  0.23142168  0.85967166  0.81298372     0.11660
C1865       C  0.24374695  0.75888263  0.00301923    -0.14470
C1866       C  0.27129857  0.75802450  0.00241487     0.07680
C1867       C  0.28511538  0.75863195  0.02635018    -0.14470
C1868       C  0.27166308  0.75897796  0.05035468    -0.14470
C1869       C  0.24409103  0.75924313  0.05096459     0.07680
C1870       C  0.23030754  0.75973329  0.02700875    -0.14470
H1871       H  0.23255612  0.75845540  0.98493958     0.11660
H1872       H  0.30636178  0.75786062  0.02655842     0.11660
H1873       H  0.28283531  0.75851256  0.06844621     0.11660
H1874       H  0.20904792  0.75972909  0.02679382     0.11660
C1875       C  0.28273012  0.83403946  0.91006666    -0.14470
C1876       C  0.30598407  0.81949913  0.90788761     0.07680
C1877       C  0.32547980  0.82775761  0.89019993    -0.14470
C1878       C  0.32127474  0.84977053  0.87416226    -0.14470
C1879       C  0.29785189  0.86412859  0.87624162     0.07680
C1880       C  0.27892382  0.85645890  0.89475343    -0.14470
H1881       H  0.26726115  0.82766387  0.92320555     0.11660
H1882       H  0.34327894  0.81636581  0.88779134     0.11660
H1883       H  0.33621536  0.85557180  0.86018528     0.11660
H1884       H  0.26073772  0.86732592  0.89668905     0.11660
C1885       C  0.34250999  0.73803028  0.84517061    -0.14470
C1886       C  0.35297487  0.73135133  0.86968055     0.07680
C1887       C  0.37861727  0.72101779  0.87107340    -0.14470
C1888       C  0.39353949  0.71747877  0.84817395    -0.14470
C1889       C  0.38324599  0.72508217  0.82380605     0.07680
C1890       C  0.35759401  0.73522760  0.82254422    -0.14470
H1891       H  0.32290212  0.74611936  0.84357203     0.11660
H1892       H  0.38705563  0.71565687  0.88985066     0.11660
H1893       H  0.41321305  0.70953159  0.84955060     0.11660
H1894       H  0.34908899  0.74090289  0.80387468     0.11660
C1895       C  0.24539023  0.52261751  0.75097721    -0.14470
C1896       C  0.24474262  0.54613470  0.76553536     0.07680
C1897       C  0.24521152  0.54468208  0.79303583    -0.14470
C1898       C  0.24582329  0.52024545  0.80568024    -0.14470
C1899       C  0.24549791  0.49672829  0.79111043     0.07680
C1900       C  0.24552415  0.49819892  0.76361429    -0.14470
H1901       H  0.24490822  0.52304446  0.72972002     0.11660
H1902       H  0.24470558  0.56240278  0.80476561     0.11660
H1903       H  0.24561003  0.51977424  0.82694033     0.11660
H1904       H  0.24520499  0.48048023  0.75187243     0.11660
C1905       C  0.32811776  0.63604148  0.72501602    -0.14470
C1906       C  0.30446003  0.64581968  0.73515819     0.07680
C1907       C  0.30413136  0.67081427  0.74691258    -0.14470
C1908       C  0.32689553  0.68583730  0.74846572    -0.14470
C1909       C  0.35063132  0.67590816  0.73894551     0.07680
C1910       C  0.35122583  0.65083233  0.72737171    -0.14470
H1911       H  0.32878825  0.61693033  0.71573159     0.11660
H1912       H  0.28606877  0.67900244  0.75459395     0.11660
H1913       H  0.32610660  0.70494739  0.75777807     0.11660
H1914       H  0.36950468  0.64282737  0.72002963     0.11660
C1915       C  0.27076213  0.78252698  0.55301215    -0.14470
C1916       C  0.24327831  0.78354607  0.55492642     0.07680
C1917       C  0.22837122  0.78273606  0.53161919    -0.14470
C1918       C  0.24057955  0.78180039  0.50701407    -0.14470
C1919       C  0.26803105  0.78115115  0.50503424     0.07680
C1920       C  0.28299512  0.78109272  0.52833579    -0.14470
H1921       H  0.28278942  0.78315237  0.57053810     0.11660
H1922       H  0.20714151  0.78362523  0.53232596     0.11660
H1923       H  0.22851283  0.78193966  0.48950065     0.11660
H1924       H  0.30423587  0.78083238  0.52746952     0.11660
C1925       C  0.22840341  0.70483232  0.64444987    -0.14470
C1926       C  0.21027327  0.72378154  0.65254382     0.07680
C1927       C  0.19627711  0.72012188  0.67599609    -0.14470
C1928       C  0.20066712  0.69784445  0.69147960    -0.14470
C1929       C  0.21887360  0.67879720  0.68346427     0.07680
C1930       C  0.23240118  0.68230086  0.65960475    -0.14470
H1931       H  0.23982947  0.70775789  0.62674787     0.11660
H1932       H  0.18268244  0.73501098  0.68279063     0.11660
H1933       H  0.18994269  0.69554980  0.70969833     0.11660
H1934       H  0.24666116  0.66795814  0.65304008     0.11660
C1935       C  0.13932308  0.79602860  0.69220908    -0.14470
C1936       C  0.16190207  0.81128792  0.68777785     0.07680
C1937       C  0.16797363  0.83167938  0.70527287    -0.14470
C1938       C  0.15167613  0.83662400  0.72690860    -0.14470
C1939       C  0.12950679  0.82087538  0.73157280     0.07680
C1940       C  0.12355148  0.80046945  0.71418110    -0.14470
H1941       H  0.13428374  0.78012885  0.67901708     0.11660
H1942       H  0.18517063  0.84378616  0.70214076     0.11660
H1943       H  0.15700393  0.85194848  0.74066010     0.11660
H1944       H  0.10697393  0.78767133  0.71790350     0.11660
C1945       C  0.76555988  0.02032427  0.75317928    -0.14470
C1946       C  0.76708872  0.99649312  0.76717385     0.07680
C1947       C  0.76792619  0.99739539  0.79472937    -0.14470
C1948       C  0.76776989  0.02161369  0.80790250    -0.14470
C1949       C  0.76729927  0.04541332  0.79377264     0.07680
C1950       C  0.76591689  0.04445155  0.76628538    -0.14470
H1951       H  0.76503985  0.02039890  0.73191947     0.11660
H1952       H  0.76918533  0.97943434  0.80605734     0.11660
H1953       H  0.76905277  0.02172541  0.82912947     0.11660
H1954       H  0.76556499  0.06239475  0.75485611     0.11660
C1955       C  0.77986308  0.76323270  0.52337260    -0.14470
C1956       C  0.76600239  0.76235507  0.54732295     0.07680
C1957       C  0.73849668  0.76091229  0.54651980    -0.14470
C1958       C  0.72522322  0.75983948  0.52243221    -0.14470
C1959       C  0.73910863  0.75972066  0.49848813     0.07680
C1960       C  0.76659321  0.76170610  0.49924723    -0.14470
H1961       H  0.80110255  0.76413332  0.52327193     0.11660
H1962       H  0.72723600  0.76010490  0.56453825     0.11660
H1963       H  0.70402566  0.75822031  0.52261473     0.11660
H1964       H  0.77786266  0.76166145  0.48121949     0.11660
C1965       C  0.79731865  0.84723597  0.63638099    -0.14470
C1966       C  0.80096519  0.82253999  0.64786712     0.07680
C1967       C  0.80201929  0.82036380  0.67534238    -0.14470
C1968       C  0.79903058  0.84246878  0.69126471    -0.14470
C1969       C  0.79443452  0.86717133  0.67999613     0.07680
C1970       C  0.79387572  0.86940139  0.65236017    -0.14470
H1971       H  0.79623259  0.84921154  0.61523176     0.11660
H1972       H  0.80481242  0.80134907  0.68450805     0.11660
H1973       H  0.79956512  0.84008521  0.71239268     0.11660
H1974       H  0.79040424  0.88822988  0.64309110     0.11660
C1975       C  0.77805601  0.78143419  0.00232446    -0.14470
C1976       C  0.75056014  0.77951883  0.00203615     0.07680
C1977       C  0.73711162  0.77689717  0.02602528    -0.14470
C1978       C  0.75073161  0.77738430  0.04983964    -0.14470
C1979       C  0.77813857  0.78001760  0.05017444     0.07680
C1980       C  0.79174074  0.78142957  0.02617343    -0.14470
H1981       H  0.78892268  0.78352861  0.98416745     0.11660
H1982       H  0.71589898  0.77553088  0.02647225     0.11660
H1983       H  0.73976413  0.77619111  0.06802016     0.11660
H1984       H  0.81289021  0.78358826  0.02585886     0.11660
C1985       C  0.53133597  0.75514654  0.76837886    -0.14470
C1986       C  0.53233049  0.78267101  0.76895172     0.07680
C1987       C  0.50861024  0.79688121  0.76910218    -0.14470
C1988       C  0.48445035  0.78389257  0.76762691    -0.14470
C1989       C  0.48347170  0.75639341  0.76649581     0.07680
C1990       C  0.50714575  0.74213696  0.76743262    -0.14470
H1991       H  0.54925449  0.74369741  0.76815176     0.11660
H1992       H  0.50872972  0.81814625  0.76931253     0.11660
H1993       H  0.46656247  0.79537431  0.76695913     0.11660
H1994       H  0.50702280  0.72089373  0.76646170     0.11660
C1995       C  0.62361402  0.82380296  0.85258124    -0.14470
C1996       C  0.63250025  0.81380568  0.82850444     0.07680
C1997       C  0.65706119  0.80122866  0.82735138    -0.14470
C1998       C  0.67255204  0.79872279  0.84964858    -0.14470
C1999       C  0.66358981  0.80813462  0.87378345     0.07680
C2000       C  0.63892623  0.82051693  0.87528533    -0.14470
H2001       H  0.60481691  0.83365115  0.85388131     0.11660
H2002       H  0.66457217  0.79359042  0.80897773     0.11660
H2003       H  0.69133959  0.78884351  0.84814879     0.11660
H2004       H  0.63170955  0.82783227  0.89389756     0.11660
C2005       C  0.68754472  0.85453705  0.73685202    -0.14470
C2006       C  0.66318038  0.86656012  0.74115508     0.07680
C2007       C  0.66144293  0.89420005  0.74005409    -0.14470
C2008       C  0.68383854  0.90949661  0.73527205    -0.14470
C2009       C  0.70823154  0.89729837  0.73198669     0.07680
C2010       C  0.70986625  0.86978397  0.73258060    -0.14470
H2011       H  0.68951151  0.83337102  0.73754376     0.11660
H2012       H  0.64283694  0.90399330  0.74320150     0.11660
H2013       H  0.68231275  0.93070918  0.73516315     0.11660
H2014       H  0.72864807  0.86007838  0.73013881     0.11660
C2015       C  0.98252394  0.79208746  0.78770013    -0.14470
C2016       C  0.98063294  0.76460774  0.78652034     0.07680
C2017       C  0.00398038  0.74975094  0.78609984    -0.14470
C2018       C  0.02855603  0.76197081  0.78780718    -0.14470
C2019       C  0.03045278  0.78940171  0.78943980     0.07680
C2020       C  0.00717067  0.80435604  0.78886079    -0.14470
H2021       H  0.96496168  0.80406448  0.78818351     0.11660
H2022       H  0.00325923  0.72850852  0.78543650     0.11660
H2023       H  0.04607237  0.74991811  0.78821417     0.11660
H2024       H  0.00796253  0.82555967  0.79025337     0.11660
C2025       C  0.85410578  0.74156090  0.72662414    -0.14470
C2026       C  0.88017719  0.73255988  0.72540523     0.07680
C2027       C  0.89084997  0.72564387  0.70099062    -0.14470
C2028       C  0.87582312  0.72868764  0.67803846    -0.14470
C2029       C  0.84970372  0.73772329  0.67942793     0.07680
C2030       C  0.83893386  0.74377635  0.70396296    -0.14470
H2031       H  0.84532533  0.74673046  0.74529909     0.11660
H2032       H  0.91086314  0.71860076  0.69962666     0.11660
H2033       H  0.88452092  0.72390290  0.65923781     0.11660
H2034       H  0.81897366  0.75095472  0.70554919     0.11660
C2035       C  0.74621986  0.54663088  0.75888143    -0.14470
C2036       C  0.74727003  0.54792593  0.78636200     0.07680
C2037       C  0.74938653  0.52435401  0.80074508    -0.14470
C2038       C  0.74935739  0.49999361  0.78798714    -0.14470
C2039       C  0.74770675  0.49868849  0.76053240     0.07680
C2040       C  0.74667794  0.52230430  0.74610732    -0.14470
H2041       H  0.74452829  0.56438578  0.74728206     0.11660
H2042       H  0.75006665  0.52467011  0.82199752     0.11660
H2043       H  0.75013600  0.48219580  0.79961602     0.11660
H2044       H  0.74523166  0.52198328  0.72489255     0.11660
C2045       C  0.82833129  0.64018670  0.82476445    -0.14470
C2046       C  0.80340264  0.65023751  0.81891666     0.07680
C2047       C  0.80108338  0.67645173  0.81044382    -0.14470
C2048       C  0.82322567  0.69229740  0.80747049    -0.14470
C2049       C  0.84826838  0.68205664  0.81223929     0.07680
C2050       C  0.85068340  0.65588826  0.82101214    -0.14470
H2051       H  0.83055467  0.62008862  0.83136377     0.11660
H2052       H  0.78197040  0.68473614  0.80609534     0.11660
H2053       H  0.82082858  0.71229302  0.80059743     0.11660
H2054       H  0.86987633  0.64759083  0.82489394     0.11660
C2055       C  0.70875516  0.67620451  0.89566078    -0.14470
C2056       C  0.71731488  0.67858418  0.86945739     0.07680
C2057       C  0.72315179  0.70343373  0.85934767    -0.14470
C2058       C  0.72150417  0.72545901  0.87542485    -0.14470
C2059       C  0.71334741  0.72315642  0.90170309     0.07680
C2060       C  0.70631788  0.69848952  0.91160652    -0.14470
H2061       H  0.70417581  0.65709432  0.90380965     0.11660
H2062       H  0.72999785  0.70569547  0.83933104     0.11660
H2063       H  0.72663731  0.74444444  0.86728215     0.11660
H2064       H  0.69984018  0.69638547  0.93175206     0.11660
C2065       C  0.88846830  0.97623589  0.69358763    -0.14470
C2066       C  0.90773918  0.96208211  0.70751327     0.07680
C2067       C  0.89990561  0.94327867  0.72597043    -0.14470
C2068       C  0.87329046  0.93848576  0.73021882    -0.14470
C2069       C  0.85401187  0.95213322  0.71581279     0.07680
C2070       C  0.86182341  0.97116601  0.69756375    -0.14470
H2071       H  0.89399031  0.99078067  0.67907886     0.11660
H2072       H  0.91432669  0.93210682  0.73691773     0.11660
H2073       H  0.86783234  0.92357740  0.74437915     0.11660
H2074       H  0.84739033  0.98193261  0.68623527     0.11660
C2075       C  0.17294762  0.90642088  0.57997987    -0.14470
C2076       C  0.18642614  0.92558721  0.59462806     0.07680
C2077       C  0.20490265  0.91764034  0.61340006    -0.14470
C2078       C  0.20962296  0.89093634  0.61758075    -0.14470
C2079       C  0.19563533  0.87180974  0.60334212     0.07680
C2080       C  0.17736688  0.87979347  0.58443225    -0.14470
H2081       H  0.15846807  0.91198106  0.56542254     0.11660
H2082       H  0.21552284  0.93200683  0.62492373     0.11660
H2083       H  0.22374117  0.88525215  0.63244292     0.11660
H2084       H  0.16635283  0.86546731  0.57322893     0.11660
C2085       C  0.07591996  0.98793635  0.61357513    -0.14470
C2086       C  0.10053655  0.98595602  0.62565067     0.07680
C2087       C  0.10189508  0.97998672  0.65265747    -0.14470
C2088       C  0.07887732  0.97621602  0.66733269    -0.14470
C2089       C  0.05434275  0.97920416  0.65526653     0.07680
C2090       C  0.05308427  0.98493554  0.62831173    -0.14470
H2091       H  0.07430536  0.99259965  0.59287887     0.11660
H2092       H  0.12073188  0.97828276  0.66237835     0.11660
H2093       H  0.08019968  0.97184819  0.68810721     0.11660
H2094       H  0.03427056  0.98715476  0.61861605     0.11660
C2095       C  0.09189069  0.22139880  0.63547131    -0.14470
C2096       C  0.07247305  0.20395858  0.62681581     0.07680
C2097       C  0.05686506  0.19076850  0.64542678    -0.14470
C2098       C  0.06116757  0.19432094  0.67223772    -0.14470
C2099       C  0.08092495  0.21137086  0.68087556     0.07680
C2100       C  0.09597888  0.22518768  0.66227531    -0.14470
H2101       H  0.10418509  0.23177761  0.62156075     0.11660
H2102       H  0.04176088  0.17712480  0.63928798     0.11660
H2103       H  0.04927474  0.18351502  0.68617347     0.11660
H2104       H  0.11144265  0.23841921  0.66842711     0.11660
C2105       C  0.09340176  0.09418605  0.56272577    -0.14470
C2106       C  0.10509175  0.11867935  0.56702789     0.07680
C2107       C  0.13131888  0.11971075  0.57584714    -0.14470
C2108       C  0.14561981  0.09652051  0.58011392    -0.14470
C2109       C  0.13406672  0.07212751  0.57480710     0.07680
C2110       C  0.10783031  0.07120502  0.56626940    -0.14470
H2111       H  0.07330740  0.09280823  0.55589532     0.11660
H2112       H  0.14073161  0.13843904  0.57940982     0.11660
H2113       H  0.16579050  0.09764604  0.58674328     0.11660
H2114       H  0.09840979  0.05253776  0.56234041     0.11660
C2115       C  0.95926059  0.85946991  0.41129410    -0.14470
C2116       C  0.94459445  0.84641757  0.43077274     0.07680
C2117       C  0.92602108  0.82760068  0.42333241    -0.14470
C2118       C  0.92211006  0.82199861  0.39682999    -0.14470
C2119       C  0.93646252  0.83537643  0.37734223     0.07680
C2120       C  0.95509854  0.85412215  0.38478484    -0.14470
H2121       H  0.97367317  0.87420451  0.41650915     0.11660
H2122       H  0.91448966  0.81731056  0.43794614     0.11660
H2123       H  0.90741196  0.80756125  0.39157848     0.11660
H2124       H  0.96632902  0.86471358  0.37015085     0.11660
C2125       C  0.94598695  0.89730511  0.59711395    -0.14470
C2126       C  0.96529975  0.89842902  0.57743463     0.07680
C2127       C  0.98688224  0.91539846  0.58080111    -0.14470
C2128       C  0.98881347  0.93135770  0.60288219    -0.08710
C2129       C  0.96946315  0.93043378  0.62225114     0.07680
C2130       C  0.94825114  0.91303759  0.61960334    -0.14470
H2131       H  0.92907848  0.88460311  0.59496318     0.11660
H2132       H  0.00212529  0.91682820  0.56604850     0.11660
H2133       H  0.00561905  0.94423037  0.60502178     0.11660
H2134       H  0.93340266  0.91185064  0.63478107     0.11660
C2135       C  0.84238308  0.14428222  0.48316553    -0.14470
C2136       C  0.82868083  0.12483870  0.46907375     0.07680
C2137       C  0.80983408  0.13243789  0.45056635    -0.14470
C2138       C  0.80501723  0.15897223  0.44592824    -0.14470
C2139       C  0.81920928  0.17846060  0.45944106     0.07680
C2140       C  0.83781705  0.17090174  0.47825163    -0.14470
H2141       H  0.85716932  0.13892150  0.49748615     0.11660
H2142       H  0.79901815  0.11788261  0.43946644     0.11660
H2143       H  0.79056688  0.16420335  0.43122136     0.11660
H2144       H  0.84899038  0.18550532  0.48892187     0.11660
C2145       C  0.91025757  0.97986238  0.48418802    -0.14470
C2146       C  0.88273967  0.97846461  0.48321507     0.07680
C2147       C  0.87037957  0.95401704  0.48524805    -0.14470
C2148       C  0.88546224  0.93129493  0.48912842    -0.14470
C2149       C  0.91310171  0.93271174  0.49055586     0.07680
C2150       C  0.92532627  0.95719571  0.48754317    -0.14470
H2151       H  0.92009391  0.99867425  0.48266009     0.11660
H2152       H  0.84916711  0.95263683  0.48477134     0.11660
H2153       H  0.87548077  0.91264729  0.49130538     0.11660
H2154       H  0.94649269  0.95894273  0.48852649     0.11660
C2155       C  0.12555369  0.07026612  0.36013056    -0.14470
C2156       C  0.10671186  0.08668946  0.34828981     0.07680
C2157       C  0.11503980  0.10614275  0.33066727    -0.14470
C2158       C  0.14183369  0.10931699  0.32536760    -0.14470
C2159       C  0.16061220  0.09334808  0.33794087     0.07680
C2160       C  0.15217806  0.07367327  0.35515299    -0.14470
H2161       H  0.11980618  0.05509464  0.37389130     0.11660
H2162       H  0.10094729  0.11902998  0.32129870     0.11660
H2163       H  0.14790846  0.12477556  0.31207735     0.11660
H2164       H  0.16619597  0.06109938  0.36506022     0.11660
C2165       C  0.91458620  0.07539030  0.41119360    -0.14470
C2166       C  0.91560304  0.06561460  0.43705888     0.07680
C2167       C  0.93993798  0.05906604  0.44799117    -0.14470
C2168       C  0.96278427  0.06142211  0.43313135    -0.14470
C2169       C  0.96192000  0.07100091  0.40721647     0.07680
C2170       C  0.93768866  0.07850076  0.39649029    -0.14470
H2171       H  0.89593049  0.08056762  0.40239012     0.11660
H2172       H  0.94120206  0.05129059  0.46776202     0.11660
H2173       H  0.98127789  0.05578762  0.44201386     0.11660
H2174       H  0.93656008  0.08602676  0.37662704     0.11660
C2175       C  0.07321864  0.12196610  0.44835015    -0.14470
C2176       C  0.04947502  0.12375893  0.43448416     0.07680
C2177       C  0.03083437  0.14262473  0.44195486    -0.14470
C2178       C  0.03522692  0.15855873  0.46378223    -0.14470
C2179       C  0.05876669  0.15661247  0.47790010     0.07680
C2180       C  0.07799825  0.13860090  0.46975591    -0.14470
H2181       H  0.08793031  0.10769733  0.44268505     0.11660
H2182       H  0.01239783  0.14432648  0.43147109     0.11660
H2183       H  0.01994638  0.17193273  0.47011657     0.11660
H2184       H  0.09600169  0.13636149  0.48086386     0.11660
C2185       C  0.90175536  0.10423487  0.83196527    -0.14470
C2186       C  0.90958546  0.08486757  0.84988188     0.07680
C2187       C  0.89037704  0.06942821  0.86238837    -0.14470
C2188       C  0.86380227  0.07376231  0.85768130    -0.14470
C2189       C  0.85592196  0.09336814  0.84009844     0.07680
C2190       C  0.87510233  0.10832592  0.82696200    -0.14470
H2191       H  0.91616351  0.11637017  0.82209587     0.11660
H2192       H  0.89583939  0.05438204  0.87640656     0.11660
H2193       H  0.84942795  0.06199732  0.86804247     0.11660
H2194       H  0.86948859  0.12372360  0.81339340     0.11660
C2195       C  0.99618328  0.03879579  0.75630035    -0.14470
C2196       C  0.99580890  0.01129116  0.75482797     0.07680
C2197       C  0.99688503  0.99664486  0.77827858    -0.14470
C2198       C  0.99719691  0.00919412  0.80268976    -0.14470
C2199       C  0.99694399  0.03668112  0.80420103     0.07680
C2200       C  0.99699616  0.05136366  0.78074265    -0.14470
H2201       H  0.99537012  0.05057710  0.73860368     0.11660
H2202       H  0.99650416  0.97538750  0.77781950     0.11660
H2203       H  0.99710085  0.99738355  0.82038703     0.11660
H2204       H  0.99659906  0.07261883  0.78128381     0.11660
C2205       C  0.20548138  0.12675711  0.94895855    -0.14470
C2206       C  0.18657333  0.11892058  0.96726817     0.07680
C2207       C  0.17261041  0.13812769  0.98142714    -0.14470
C2208       C  0.17702170  0.16480217  0.97677153    -0.14470
C2209       C  0.19573823  0.17257180  0.95819899     0.07680
C2210       C  0.21013481  0.15331267  0.94458904    -0.14470
H2211       H  0.21647126  0.11238081  0.93779393     0.11660
H2212       H  0.15779470  0.13254486  0.99562091     0.11660
H2213       H  0.16571119  0.17927532  0.98747430     0.11660
H2214       H  0.22460884  0.15874596  0.92998486     0.11660
C2215       C  0.10224500  0.06971888  0.90957972    -0.14470
C2216       C  0.10094027  0.05945214  0.93525689     0.07680
C2217       C  0.07645005  0.05337050  0.94607653    -0.14470
C2218       C  0.05371731  0.05659780  0.93122287    -0.14470
C2219       C  0.05492445  0.06658391  0.90549468     0.07680
C2220       C  0.07928496  0.07367609  0.89490441    -0.14470
H2221       H  0.12101915  0.07462543  0.90088638     0.11660
H2222       H  0.07494715  0.04534697  0.96572760     0.11660
H2223       H  0.03503512  0.05130204  0.93991460     0.11660
H2224       H  0.08059998  0.08147360  0.87515712     0.11660
C2225       C  0.08992265  0.82510199  0.92545782    -0.14470
C2226       C  0.07074285  0.84319017  0.93328704     0.07680
C2227       C  0.05570818  0.85613103  0.91400370    -0.14470
C2228       C  0.06013760  0.85160792  0.88742918    -0.14470
C2229       C  0.07945326  0.83377245  0.87952265     0.07680
C2230       C  0.09410569  0.82026751  0.89873836    -0.14470
H2231       H  0.10175169  0.81491033  0.93990690     0.11660
H2232       H  0.04083735  0.87033409  0.91941324     0.11660
H2233       H  0.04861969  0.86228198  0.87306983     0.11660
H2234       H  0.10929199  0.80649593  0.89310443     0.11660
C2235       C  0.10191568  0.94240608  0.96868368    -0.14470
C2236       C  0.10450181  0.92796498  0.99201548     0.07680
C2237       C  0.12439769  0.93457924  0.00990891    -0.14470
C2238       C  0.14064503  0.95611200  0.00520211    -0.14470
C2239       C  0.13793177  0.97074539  0.98205557     0.07680
C2240       C  0.11880740  0.96350566  0.96356675    -0.14470
H2241       H  0.08687569  0.93738133  0.95451435     0.11660
H2242       H  0.12675631  0.92361633  0.02800016     0.11660
H2243       H  0.15488764  0.96180943  0.01994124     0.11660
H2244       H  0.11598236  0.97507716  0.94592891     0.11660
C2245       C  0.15127094  0.96865450  0.19471626    -0.14470
C2246       C  0.15939773  0.95361500  0.21630296     0.07680
C2247       C  0.14056996  0.94480593  0.23453116    -0.14470
C2248       C  0.11404417  0.94961310  0.23054046    -0.14470
C2249       C  0.10579083  0.96371942  0.20850037     0.07680
C2250       C  0.12457037  0.97385520  0.19094335    -0.14470
H2251       H  0.16537728  0.97567235  0.18043697     0.11660
H2252       H  0.14618956  0.93327162  0.25150356     0.11660
H2253       H  0.09993671  0.94183802  0.24443718     0.11660
H2254       H  0.11852697  0.98480198  0.17372795     0.11660
C2255       C  0.01894857  0.99442689  0.28282305    -0.14470
C2256       C  0.01808715  0.00826500  0.25886846     0.07680
C2257       C  0.01648137  0.03574172  0.25947656    -0.14470
C2258       C  0.01640743  0.04914422  0.28342141    -0.14470
C2259       C  0.01840793  0.03544982  0.30739142     0.07680
C2260       C  0.01934389  0.00789666  0.30685144    -0.14470
H2261       H  0.02035418  0.97320845  0.28296640     0.11660
H2262       H  0.01576364  0.04693565  0.24139563     0.11660
H2263       H  0.01576162  0.07039747  0.28307081     0.11660
H2264       H  0.02096741  0.99680440  0.32493089     0.11660
C2265       C  0.05499057  0.90315617  0.12574826    -0.14470
C2266       C  0.04334211  0.92823713  0.12504154     0.07680
C2267       C  0.03482225  0.93841846  0.10098661    -0.14470
C2268       C  0.03740924  0.92368885  0.07810051    -0.14470
C2269       C  0.04913164  0.89865965  0.07859714     0.07680
C2270       C  0.05825566  0.88860761  0.10257717    -0.14470
H2271       H  0.06171589  0.89492814  0.14417946     0.11660
H2272       H  0.02559246  0.95756113  0.09996065     0.11660
H2273       H  0.03046092  0.93210801  0.05983322     0.11660
H2274       H  0.06745725  0.86945554  0.10344370     0.11660
C2275       C  0.81183927  0.91337250  0.11326110    -0.14470
C2276       C  0.82967092  0.92277303  0.09455907     0.07680
C2277       C  0.84361491  0.90475033  0.07892234    -0.14470
C2278       C  0.84034480  0.87781869  0.08239433    -0.14470
C2279       C  0.82279902  0.86838151  0.10131978     0.07680
C2280       C  0.80828215  0.88636534  0.11647999    -0.14470
H2281       H  0.80091010  0.92684201  0.12555112     0.11660
H2282       H  0.85765684  0.91144181  0.06441957     0.11660
H2283       H  0.85175034  0.86440292  0.07047793     0.11660
H2284       H  0.79467178  0.87956084  0.13133449     0.11660
C2285       C  0.93089351  0.96317769  0.12466119    -0.14470
C2286       C  0.91218940  0.98184846  0.13238609     0.07680
C2287       C  0.91533315  0.99496183  0.15648703    -0.14470
C2288       C  0.93746412  0.99041786  0.17200165    -0.14470
C2289       C  0.95625527  0.97204198  0.16408378     0.07680
C2290       C  0.95270493  0.95814402  0.14056763    -0.14470
H2291       H  0.92878311  0.95273697  0.10626119     0.11660
H2292       H  0.90118580  0.00951894  0.16282503     0.11660
H2293       H  0.94037621  0.00183415  0.18970703     0.11660
H2294       H  0.96755381  0.94447262  0.13383779     0.11660
C2295       C  0.92570588  0.22004425  0.13637514    -0.14470
C2296       C  0.94469936  0.20164349  0.12898113     0.07680
C2297       C  0.95930342  0.18857635  0.14851410    -0.14470
C2298       C  0.95447675  0.19332334  0.17504374    -0.14470
C2299       C  0.93526484  0.21151462  0.18242752     0.07680
C2300       C  0.92116936  0.22508924  0.16287615    -0.14470
H2301       H  0.91419702  0.23030895  0.12171602     0.11660
H2302       H  0.97399234  0.17410958  0.14331113     0.11660
H2303       H  0.96556135  0.18263235  0.18972560     0.11660
H2304       H  0.90609329  0.23916045  0.16805568     0.11660
C2305       C  0.96079460  0.14217117  0.93650564    -0.14470
C2306       C  0.96779002  0.11543039  0.93772780     0.07680
C2307       C  0.97079026  0.10338761  0.96226084    -0.14470
C2308       C  0.96780596  0.11799213  0.98517653    -0.14470
C2309       C  0.96108784  0.14473085  0.98404104     0.07680
C2310       C  0.95703987  0.15666822  0.95958873    -0.14470
H2311       H  0.95833821  0.15183875  0.91771301     0.11660
H2312       H  0.97630791  0.08289199  0.96371607     0.11660
H2313       H  0.97080065  0.10836593  0.00392705     0.11660
H2314       H  0.95187348  0.17726280  0.95835850     0.11660
C2315       C  0.88351707  0.11530873  0.06853615    -0.14470
C2316       C  0.91070301  0.11534305  0.07384884     0.07680
C2317       C  0.92207491  0.09305857  0.08538999    -0.14470
C2318       C  0.90683074  0.07083439  0.09044942    -0.14470
C2319       C  0.87996743  0.07059281  0.08432993     0.07680
C2320       C  0.86826026  0.09303340  0.07368740    -0.14470
H2321       H  0.87416348  0.13222808  0.05966477     0.11660
H2322       H  0.94286416  0.09252110  0.08981618     0.11660
H2323       H  0.91620307  0.05339473  0.09828065     0.11660
H2324       H  0.84768739  0.09290637  0.06829818     0.11660
C2325       C  0.70081636  0.91290870  0.94547811    -0.14470
C2326       C  0.69047827  0.92066900  0.96973258     0.07680
C2327       C  0.68473546  0.90149141  0.98883814    -0.14470
C2328       C  0.68861774  0.87490542  0.98345317    -0.14470
C2329       C  0.69866854  0.86727148  0.95907656     0.07680
C2330       C  0.70498551  0.88642773  0.94025176    -0.14470
H2331       H  0.70507619  0.92721375  0.93031610     0.11660
H2332       H  0.67668629  0.90698614  0.00773230     0.11660
H2333       H  0.68381421  0.86037487  0.99823609     0.11660
H2334       H  0.71254467  0.88084476  0.92116971     0.11660
C2335       C  0.75779819  0.01032270  0.00614893    -0.14470
C2336       C  0.73399674  0.00943725  0.02021845     0.07680
C2337       C  0.73481903  0.01018913  0.04772378    -0.14470
C2338       C  0.75889018  0.01109815  0.06089624    -0.14470
C2339       C  0.78274738  0.01082546  0.04689831     0.07680
C2340       C  0.78193988  0.01078683  0.01935534    -0.14470
H2341       H  0.75780497  0.00961227  0.98489578     0.11660
H2342       H  0.71686141  0.00952917  0.05908839     0.11660
H2343       H  0.75878817  0.01099361  0.08216174     0.11660
H2344       H  0.79993640  0.01049642  0.00804240     0.11660
C2345       C  0.59086686  0.21996456  0.89741400    -0.14470
C2346       C  0.57771886  0.20548167  0.87787733     0.07680
C2347       C  0.55972788  0.18608628  0.88528435    -0.14470
C2348       C  0.55500987  0.18124149  0.91184918    -0.14470
C2349       C  0.56853694  0.19543389  0.93135146     0.07680
C2350       C  0.58645822  0.21485609  0.92390605    -0.14470
H2351       H  0.60505709  0.23493558  0.89223696     0.11660
H2352       H  0.54942884  0.17466265  0.87060617     0.11660
H2353       H  0.54117351  0.16597830  0.91712094     0.11660
H2354       H  0.59714500  0.22599593  0.93852923     0.11660
C2355       C  0.62691907  0.11160654  0.98288264    -0.14470
C2356       C  0.60102076  0.10994593  0.99238627     0.07680
C2357       C  0.59076585  0.08548177  0.99948988    -0.14470
C2358       C  0.60634039  0.06308410  0.99781977    -0.14470
C2359       C  0.63222262  0.06461334  0.98835710     0.07680
C2360       C  0.64231333  0.08894289  0.98041531    -0.14470
H2361       H  0.63517734  0.13041234  0.97735256     0.11660
H2362       H  0.57097771  0.08380619  0.00711040     0.11660
H2363       H  0.59802458  0.04440612  0.00372147     0.11660
H2364       H  0.66216078  0.09047323  0.97294863     0.11660
C2365       C  0.62646512  0.06572660  0.19676750    -0.14470
C2366       C  0.60667484  0.08020818  0.20954373     0.07680
C2367       C  0.61377961  0.09971199  0.22754251    -0.14470
C2368       C  0.64023923  0.10487675  0.23240734    -0.14470
C2369       C  0.66000003  0.09088075  0.21906553     0.07680
C2370       C  0.65289128  0.07114703  0.20134451    -0.14470
H2371       H  0.62154687  0.05060273  0.18266081     0.11660
H2372       H  0.59893743  0.11113829  0.23760006     0.11660
H2373       H  0.64521834  0.12033796  0.24612214     0.11660
H2374       H  0.66772213  0.06009611  0.19085667     0.11660
C2375       C  0.54414094  0.11485716  0.07514005    -0.14470
C2376       C  0.55225785  0.14119241  0.07694642     0.07680
C2377       C  0.55908794  0.15155912  0.10146500    -0.14470
C2378       C  0.55649664  0.13603614  0.12406123    -0.14470
C2379       C  0.54799633  0.10977202  0.12218144     0.07680
C2380       C  0.54235990  0.09918350  0.09749673    -0.14470
H2381       H  0.53918107  0.10634796  0.05628128     0.11660
H2382       H  0.56555644  0.17173952  0.10320219     0.11660
H2383       H  0.56095523  0.14455308  0.14302757     0.11660
H2384       H  0.53559778  0.07910350  0.09560670     0.11660
C2385       C  0.40336586  0.93867805  0.83325809    -0.14470
C2386       C  0.41143695  0.95779000  0.85122469     0.07680
C2387       C  0.39239671  0.97284937  0.86450756    -0.14470
C2388       C  0.36571493  0.96835549  0.86044438    -0.14470
C2389       C  0.35766369  0.94907298  0.84267482     0.07680
C2390       C  0.37668111  0.93450902  0.82885201    -0.14470
H2391       H  0.41761842  0.92678333  0.82289376     0.11660
H2392       H  0.39809828  0.98764602  0.87866689     0.11660
H2393       H  0.35143391  0.97979912  0.87126930     0.11660
H2394       H  0.37092300  0.91933233  0.81512120     0.11660
C2395       C  0.58090100  0.96883720  0.89700405    -0.14470
C2396       C  0.55627520  0.97105999  0.90902338     0.07680
C2397       C  0.55484498  0.97540968  0.93623932    -0.14470
C2398       C  0.57760018  0.97811175  0.95120248    -0.14470
C2399       C  0.60226732  0.97718438  0.93912078     0.07680
C2400       C  0.60379112  0.97228099  0.91192452    -0.14470
H2401       H  0.58238852  0.96549218  0.87605850     0.11660
H2402       H  0.53597318  0.97694644  0.94593720     0.11660
H2403       H  0.57586467  0.98194999  0.97204972     0.11660
H2404       H  0.62267006  0.97140240  0.90218703     0.11660
C2405       C  0.35082649  0.13318304  0.07675711    -0.14470
C2406       C  0.33491390  0.11423407  0.08910476     0.07680
C2407       C  0.31418884  0.12239714  0.10513728    -0.14470
C2408       C  0.30950178  0.14909021  0.10887419    -0.14470
C2409       C  0.32570913  0.16808429  0.09695800     0.07680
C2410       C  0.34637667  0.15990856  0.08080140    -0.14470
H2411       H  0.36707136  0.12733623  0.06434836     0.11660
H2412       H  0.30163262  0.10817901  0.11476178     0.11660
H2413       H  0.29347856  0.15482921  0.12161193     0.11660
H2414       H  0.35920498  0.17411131  0.07152516     0.11660
C2415       C  0.28300371  0.03039405  0.01130717    -0.14470
C2416       C  0.28439880  0.02996241  0.03882681     0.07680
C2417       C  0.26089877  0.02925413  0.05335749    -0.14470
C2418       C  0.23654280  0.02992233  0.04070955    -0.14470
C2419       C  0.23511602  0.03078853  0.01322125     0.07680
C2420       C  0.25858957  0.03053685  0.99862189    -0.14470
H2421       H  0.30075412  0.03095376  0.99961972     0.11660
H2422       H  0.26130985  0.02905316  0.07462030     0.11660
H2423       H  0.21882115  0.03012576  0.05245589     0.11660
H2424       H  0.25809454  0.03138587  0.97737725     0.11660
C2425       C  0.44229374  0.04545692  0.11116359    -0.14470
C2426       C  0.41739308  0.05088566  0.12138713     0.07680
C2427       C  0.41520464  0.06031663  0.14731708    -0.14470
C2428       C  0.43767307  0.06431007  0.16273959    -0.14470
C2429       C  0.46247113  0.05804871  0.15266705     0.07680
C2430       C  0.46455783  0.04866479  0.12676942    -0.14470
H2431       H  0.44448847  0.03812046  0.09132399     0.11660
H2432       H  0.39611684  0.06474659  0.15556740     0.11660
H2433       H  0.43565825  0.07161636  0.18260212     0.11660
H2434       H  0.48358415  0.04399375  0.11847916     0.11660
C2435       C  0.44920818  0.83696047  0.13886640    -0.14470
C2436       C  0.43290028  0.82583999  0.11952873     0.07680
C2437       C  0.41313059  0.80826680  0.12718071    -0.14470
C2438       C  0.40940086  0.80243735  0.15376664    -0.14470
C2439       C  0.42515951  0.81435463  0.17310969     0.07680
C2440       C  0.44526111  0.83141799  0.16537672    -0.14470
H2441       H  0.46466692  0.85057237  0.13359241     0.11660
H2442       H  0.40032299  0.79939697  0.11271123     0.11660
H2443       H  0.39360156  0.78929895  0.15924211     0.11660
H2444       H  0.45767518  0.84082039  0.17985399     0.11660
C2445       C  0.44329432  0.92307256  0.94954493    -0.14470
C2446       C  0.46572587  0.91847889  0.93418345     0.07680
C2447       C  0.48041696  0.89549630  0.93852174    -0.14470
C2448       C  0.47360054  0.87810131  0.95862236    -0.14470
C2449       C  0.45140964  0.88279132  0.97416166     0.07680
C2450       C  0.43603460  0.90518570  0.96924613    -0.14470
H2451       H  0.43146538  0.94046542  0.94635062     0.11660
H2452       H  0.49774936  0.89143163  0.92690111     0.11660
H2453       H  0.48613983  0.86137259  0.96261780     0.11660
H2454       H  0.41929641  0.90956663  0.98159915     0.11660
C2455       C  0.40846183  0.93711106  0.04349772    -0.14470
C2456       C  0.40356662  0.91630024  0.06063100     0.07680
C2457       C  0.38511261  0.91924811  0.08090073    -0.14470
C2458       C  0.37237079  0.94342328  0.08454974    -0.14470
C2459       C  0.37753885  0.96448298  0.06744839     0.07680
C2460       C  0.39538690  0.96082529  0.04665840    -0.14470
H2461       H  0.42237608  0.93494777  0.02755575     0.11660
H2462       H  0.38106343  0.90310471  0.09416760     0.11660
H2463       H  0.35878876  0.94572259  0.10072822     0.11660
H2464       H  0.39987436  0.97658087  0.03307516     0.11660
C2465       C  0.70474746  0.12693457  0.61526045    -0.14470
C2466       C  0.68845922  0.11872214  0.59465939     0.07680
C2467       C  0.67704857  0.13771512  0.57808889    -0.14470
C2468       C  0.68110987  0.16436554  0.58247715    -0.14470
C2469       C  0.69697520  0.17264113  0.60329851     0.07680
C2470       C  0.70913644  0.15373547  0.61942961    -0.14470
H2471       H  0.71373622  0.11273128  0.62830109     0.11660
H2472       H  0.66431868  0.13204123  0.56202990     0.11660
H2473       H  0.67159427  0.17850509  0.56973336     0.11660
H2474       H  0.72140814  0.15968661  0.63574215     0.11660
C2475       C  0.75669789  0.03281609  0.55687134    -0.14470
C2476       C  0.73295456  0.03325530  0.54263774     0.07680
C2477       C  0.73412453  0.03410163  0.51510864    -0.14470
C2478       C  0.75844961  0.03497059  0.50218676    -0.14470
C2479       C  0.78213761  0.03551871  0.51650967     0.07680
C2480       C  0.78095300  0.03417397  0.54399364    -0.14470
H2481       H  0.75655689  0.03237698  0.57813215     0.11660
H2482       H  0.71625672  0.03458590  0.50359120     0.11660
H2483       H  0.75867520  0.03614718  0.48095462     0.11660
H2484       H  0.79877913  0.03457778  0.55558235     0.11660
C2485       C  0.40267173  0.10222374  0.72838167    -0.14470
C2486       C  0.41100982  0.08338298  0.71020967     0.07680
C2487       C  0.39212861  0.06865128  0.69638406    -0.14470
C2488       C  0.36537258  0.07315181  0.70018063    -0.14470
C2489       C  0.35704475  0.09219880  0.71814042     0.07680
C2490       C  0.37592696  0.10646532  0.73244400    -0.14470
H2491       H  0.41678646  0.11382731  0.73925390     0.11660
H2492       H  0.39802876  0.05403930  0.68211691     0.11660
H2493       H  0.35124770  0.06191989  0.68893901     0.11660
H2494       H  0.37004560  0.12141179  0.74637003     0.11660
C2495       C  0.50099924  0.00851083  0.76095444    -0.14470
C2496       C  0.49877538  0.03593166  0.75992339     0.07680
C2497       C  0.49778055  0.04998910  0.78375752    -0.14470
C2498       C  0.49788116  0.03676038  0.80803851    -0.14470
C2499       C  0.49950280  0.00922247  0.80898609     0.07680
C2500       C  0.50161267  0.99538482  0.78509856    -0.14470
H2501       H  0.50185979  0.99711595  0.74302550     0.11660
H2502       H  0.49589859  0.07116996  0.78361069     0.11660
H2503       H  0.49610202  0.04800679  0.82598555     0.11660
H2504       H  0.50277873  0.97415293  0.78495507     0.11660
C2505       C  0.57259816  0.08735215  0.65146542    -0.14470
C2506       C  0.55935698  0.06542911  0.66179809     0.07680
C2507       C  0.56855614  0.04012936  0.65571411    -0.14470
C2508       C  0.59019963  0.03673175  0.63931662    -0.14470
C2509       C  0.60271612  0.05850336  0.62815636     0.07680
C2510       C  0.59407297  0.08388656  0.63451925    -0.14470
H2511       H  0.56562585  0.10702762  0.65551209     0.11660
H2512       H  0.55860942  0.02288636  0.66322461     0.11660
H2513       H  0.59690172  0.01702552  0.63489091     0.11660
H2514       H  0.60393225  0.10091184  0.62643296     0.11660
C2515       C  0.30880935  0.91121130  0.44797840    -0.14470
C2516       C  0.32776135  0.91831480  0.46659412     0.07680
C2517       C  0.34168664  0.89847099  0.47991944    -0.14470
C2518       C  0.33709645  0.87201852  0.47436787    -0.14470
C2519       C  0.31822376  0.86492048  0.45566584     0.07680
C2520       C  0.30394513  0.88475359  0.44270839    -0.14470
H2521       H  0.29787257  0.92608243  0.43740089     0.11660
H2522       H  0.35660024  0.90339717  0.49425386     0.11660
H2523       H  0.34833441  0.85715698  0.48463889     0.11660
H2524       H  0.28930495  0.87983958  0.42809126     0.11660
C2525       C  0.25896152  0.00924415  0.50371512    -0.14470
C2526       C  0.28257169  0.00729880  0.51798843     0.07680
C2527       C  0.28148414  0.00778106  0.54552305    -0.14470
C2528       C  0.25728324  0.00965009  0.55847602    -0.14470
C2529       C  0.23361425  0.01055451  0.54418564     0.07680
C2530       C  0.23475155  0.01058911  0.51665995    -0.14470
H2531       H  0.25911322  0.00880360  0.48245461     0.11660
H2532       H  0.29929882  0.00632123  0.55704499     0.11660
H2533       H  0.25705237  0.00935680  0.57973957     0.11660
H2534       H  0.21689339  0.01117768  0.50512789     0.11660
C2535       C  0.43099364  0.21277801  0.42146107    -0.14470
C2536       C  0.44844746  0.19322398  0.42977571     0.07680
C2537       C  0.46209678  0.17841674  0.41082252    -0.14470
C2538       C  0.45787804  0.18264598  0.38404296    -0.14470
C2539       C  0.44026217  0.20206252  0.37572857     0.07680
C2540       C  0.42710331  0.21730117  0.39469224    -0.14470
H2541       H  0.42025632  0.22444808  0.43562063     0.11660
H2542       H  0.47560582  0.16307127  0.41669565     0.11660
H2543       H  0.46819799  0.17060624  0.36988399     0.11660
H2544       H  0.41322555  0.23232597  0.38885028     0.11660
C2545       C  0.47187199  0.10129716  0.60013343    -0.14470
C2546       C  0.47122481  0.11398744  0.62452994     0.07680
C2547       C  0.46617593  0.14123288  0.62528582    -0.14470
C2548       C  0.46222047  0.15551216  0.60200347    -0.14470
C2549       C  0.46394225  0.14281904  0.57767699     0.07680
C2550       C  0.46857942  0.11561960  0.57698195    -0.14470
H2551       H  0.47570432  0.08041503  0.59888718     0.11660
H2552       H  0.46546557  0.15151942  0.64387465     0.11660
H2553       H  0.45876005  0.17647316  0.60294063     0.11660
H2554       H  0.46982093  0.10542704  0.55834815     0.11660
C2555       C  0.38829299  0.11076621  0.48361929    -0.14470
C2556       C  0.41474715  0.10888476  0.49154390     0.07680
C2557       C  0.42559470  0.08405981  0.49622731    -0.14470
C2558       C  0.41012871  0.06159146  0.49386665    -0.14470
C2559       C  0.38369785  0.06338573  0.48609407     0.07680
C2560       C  0.37296457  0.08808782  0.48046036    -0.14470
H2561       H  0.37951582  0.12977290  0.47985610     0.11660
H2562       H  0.44582820  0.08207723  0.50248204     0.11660
H2563       H  0.41890509  0.04264531  0.49799783     0.11660
H2564       H  0.35267075  0.08986622  0.47436643     0.11660
C2565       C  0.64126503  0.93557462  0.32800509    -0.14470
C2566       C  0.66039090  0.94928431  0.34254083     0.07680
C2567       C  0.65243154  0.96686633  0.36206645    -0.14470
C2568       C  0.62577683  0.97067612  0.36696954    -0.14470
C2569       C  0.60667462  0.95661707  0.35275039     0.07680
C2570       C  0.61461604  0.93903410  0.33323608    -0.14470
H2571       H  0.64691321  0.92164276  0.31297472     0.11660
H2572       H  0.66676694  0.97751954  0.37360454     0.11660
H2573       H  0.62012337  0.98426348  0.38231380     0.11660
H2574       H  0.60027185  0.92802133  0.32205346     0.11660
C2575       C  0.52159686  0.99021492  0.28200896    -0.14470
C2576       C  0.52022586  0.00522163  0.30521929     0.07680
C2577       C  0.51814673  0.03259427  0.30318507    -0.14470
C2578       C  0.51781252  0.04469530  0.27845835    -0.14470
C2579       C  0.52008478  0.02971311  0.25528729     0.07680
C2580       C  0.52177337  0.00232588  0.25735174    -0.14470
H2581       H  0.52343206  0.96904464  0.28290107     0.11660
H2582       H  0.51711302  0.04463828  0.32067084     0.11660
H2583       H  0.51668606  0.06591084  0.27752733     0.11660
H2584       H  0.52365684  0.99028517  0.23993271     0.11660
C2585       C  0.46142233  0.98462843  0.43160125    -0.14470
C2586       C  0.46058095  0.97445762  0.40593715     0.07680
C2587       C  0.43656486  0.96573061  0.39570313    -0.14470
C2588       C  0.41358007  0.96813263  0.41069580    -0.14470
C2589       C  0.41462976  0.97831237  0.43637214     0.07680
C2590       C  0.43876180  0.98621015  0.44677529    -0.14470
H2591       H  0.47979019  0.99115622  0.44011452     0.11660
H2592       H  0.43551244  0.95767833  0.37605702     0.11660
H2593       H  0.39501812  0.96200918  0.40232424     0.11660
H2594       H  0.43996091  0.99439339  0.46637460     0.11660
C2595       C  0.55459195  0.85726344  0.64869776    -0.14470
C2596       C  0.56808601  0.84251520  0.62960477     0.07680
C2597       C  0.58577432  0.82307850  0.63756777    -0.14470
C2598       C  0.59024353  0.81869234  0.66414201    -0.14470
C2599       C  0.57734897  0.83387594  0.68329160     0.07680
C2600       C  0.55932955  0.85309053  0.67539228    -0.14470
H2601       H  0.54090523  0.87251460  0.64299484     0.11660
H2602       H  0.59639555  0.81147168  0.62326539     0.11660
H2603       H  0.60435946  0.80376168  0.66964796     0.11660
H2604       H  0.54917876  0.86501872  0.68976566     0.11660
C2605       C  0.53128862  0.88927817  0.46693636    -0.14470
C2606       C  0.55460837  0.89108492  0.48138055     0.07680
C2607       C  0.57388846  0.90931711  0.47383117    -0.14470
C2608       C  0.56951005  0.92605748  0.45240516    -0.14470
C2609       C  0.54610448  0.92417217  0.43802124     0.07680
C2610       C  0.52728411  0.90534681  0.44514757    -0.14470
H2611       H  0.51595884  0.87577154  0.47286994     0.11660
H2612       H  0.59168517  0.91147388  0.48528034     0.11660
H2613       H  0.58436692  0.94026536  0.44695898     0.11660
H2614       H  0.50912689  0.90355917  0.43420126     0.11660
C2615       C  0.62800780  0.92609495  0.57762560    -0.14470
C2616       C  0.60161635  0.92760003  0.56935344     0.07680
C2617       C  0.59049222  0.95231301  0.56472259    -0.14470
C2618       C  0.60562272  0.97499127  0.56738916    -0.14470
C2619       C  0.63205133  0.97357102  0.57533682     0.07680
C2620       C  0.64302097  0.94897065  0.58099356    -0.14470
H2621       H  0.63703598  0.90721123  0.58140713     0.11660
H2622       H  0.57030231  0.95407311  0.55827147     0.11660
H2623       H  0.59657163  0.99380727  0.56327666     0.11660
H2624       H  0.66327981  0.94741158  0.58725941     0.11660
C2625       C  0.34275788  0.40144589  0.57044346    -0.14470
C2626       C  0.32840775  0.42056206  0.58435698     0.07680
C2627       C  0.30975490  0.41254927  0.60284538    -0.14470
C2628       C  0.30568696  0.38592742  0.60758205    -0.14470
C2629       C  0.32047360  0.36676978  0.59421719     0.07680
C2630       C  0.33897272  0.37472829  0.57549527    -0.14470
H2631       H  0.35743514  0.40716143  0.55615708     0.11660
H2632       H  0.29848270  0.42685308  0.61381912     0.11660
H2633       H  0.29133302  0.38037863  0.62225875     0.11660
H2634       H  0.35058783  0.36037362  0.56495998     0.11660
C2635       C  0.61440680  0.44054751  0.72044506    -0.14470
C2636       C  0.60637737  0.45790120  0.70068396     0.07680
C2637       C  0.62548634  0.47197777  0.68646813    -0.14470
C2638       C  0.65214670  0.46832584  0.69146365    -0.14470
C2639       C  0.66022061  0.45085813  0.71108007     0.07680
C2640       C  0.64112358  0.43723234  0.72576429    -0.14470
H2641       H  0.60009606  0.42950554  0.73164969     0.11660
H2642       H  0.61985618  0.48541425  0.67095883     0.11660
H2643       H  0.66642314  0.47897088  0.67983470     0.11660
H2644       H  0.64685706  0.42342713  0.74090490     0.11660
C2645       C  0.43631137  0.46777387  0.65565961    -0.14470
C2646       C  0.46064909  0.47379651  0.64432885     0.07680
C2647       C  0.46150663  0.48246348  0.61809660    -0.14470
C2648       C  0.43852090  0.48539697  0.60348953    -0.14470
C2649       C  0.41408758  0.48038422  0.61501229     0.07680
C2650       C  0.41312456  0.47146906  0.64120856    -0.14470
H2651       H  0.43519598  0.46104796  0.67580753     0.11660
H2652       H  0.48010822  0.48699015  0.60882329     0.11660
H2653       H  0.43980128  0.49241443  0.58344178     0.11660
H2654       H  0.39442907  0.46742213  0.65049132     0.11660
C2655       C  0.55513597  0.35256770  0.40655119    -0.14470
C2656       C  0.56868631  0.33729851  0.42520699     0.07680
C2657       C  0.58551365  0.31734706  0.41671271    -0.14470
C2658       C  0.58928158  0.31314941  0.38997141    -0.14470
C2659       C  0.57661167  0.32912332  0.37127403     0.07680
C2660       C  0.55922079  0.34863843  0.37975877    -0.14470
H2661       H  0.54209138  0.36820584  0.41266910     0.11660
H2662       H  0.59607691  0.30530076  0.43071682     0.11660
H2663       H  0.60287035  0.29793372  0.38398092     0.11660
H2664       H  0.54926136  0.36119160  0.36576085     0.11660
C2665       C  0.53803221  0.26695063  0.51535336    -0.14470
C2666       C  0.52377979  0.29068137  0.51487410     0.07680
C2667       C  0.49626329  0.28951435  0.51577159    -0.14470
C2668       C  0.48332655  0.26521681  0.51662949    -0.14470
C2669       C  0.49756357  0.24147492  0.51613414     0.07680
C2670       C  0.52508720  0.24265288  0.51574095    -0.14470
H2671       H  0.55927404  0.26711462  0.51449673     0.11660
H2672       H  0.48471746  0.30736851  0.51535412     0.11660
H2673       H  0.46206741  0.26503489  0.51674870     0.11660
H2674       H  0.53661567  0.22478976  0.51527962     0.11660
C2675       C  0.56898535  0.41590151  0.57232991    -0.14470
C2676       C  0.56077884  0.38958756  0.57217592     0.07680
C2677       C  0.54775627  0.37927442  0.59400010    -0.14470
C2678       C  0.54259878  0.39528242  0.61566356    -0.14470
C2679       C  0.55002677  0.42196364  0.61561088     0.07680
C2680       C  0.56369421  0.43200259  0.59390951    -0.14470
H2681       H  0.57849166  0.42427220  0.55522349     0.11660
H2682       H  0.54064514  0.35922772  0.59382086     0.11660
H2683       H  0.53201605  0.38695337  0.63212231     0.11660
H2684       H  0.56975345  0.45237802  0.59336969     0.11660
C2685       C  0.70148481  0.62516238  0.44228014    -0.14470
C2686       C  0.68342723  0.61636041  0.46101801     0.07680
C2687       C  0.66908151  0.63486198  0.47573662    -0.14470
C2688       C  0.67232248  0.66174268  0.47132101    -0.14470
C2689       C  0.69029161  0.67048692  0.45245452     0.07680
C2690       C  0.70502639  0.65197000  0.43818081    -0.14470
H2691       H  0.71269726  0.61134628  0.43064165     0.11660
H2692       H  0.65485172  0.62855114  0.49022325     0.11660
H2693       H  0.66075443  0.67562601  0.48251944     0.11660
H2694       H  0.71890152  0.65818989  0.42331005     0.11660
C2695       C  0.64838894  0.44420711  0.47919332    -0.14470
C2696       C  0.63582139  0.46792013  0.47333113     0.07680
C2697       C  0.60835303  0.46856552  0.47119004    -0.14470
C2698       C  0.59345834  0.44594896  0.47544718    -0.14470
C2699       C  0.60577607  0.42227670  0.48227051     0.07680
C2700       C  0.63344960  0.42151427  0.48367564    -0.14470
H2701       H  0.66953292  0.44349372  0.48133417     0.11660
H2702       H  0.59836271  0.48686858  0.46689002     0.11660
H2703       H  0.57227492  0.44718751  0.47412212     0.11660
H2704       H  0.64353379  0.40352478  0.48887219     0.11660
C2705       C  0.39903726  0.60021967  0.32868018    -0.14470
C2706       C  0.40729396  0.58112007  0.34667062     0.07680
C2707       C  0.38837716  0.56629514  0.36033335    -0.14470
C2708       C  0.36169841  0.57086159  0.35654136    -0.14470
C2709       C  0.35339839  0.59012604  0.33877973     0.07680
C2710       C  0.37226665  0.60456601  0.32462680    -0.14470
H2711       H  0.41321555  0.61189456  0.31795954     0.11660
H2712       H  0.39417855  0.55151279  0.37449645     0.11660
H2713       H  0.34759465  0.55946293  0.36765652     0.11660
H2714       H  0.36634960  0.61962670  0.31081322     0.11660
C2715       C  0.55262401  0.55488506  0.42580362    -0.14470
C2716       C  0.55355828  0.56266044  0.39933811     0.07680
C2717       C  0.57791229  0.56729681  0.38744677    -0.14470
C2718       C  0.60109474  0.56317847  0.40173804    -0.14470
C2719       C  0.60002894  0.55518039  0.42821776     0.07680
C2720       C  0.57559163  0.55147507  0.44018383    -0.14470
H2721       H  0.53396699  0.55143713  0.43543164     0.11660
H2722       H  0.57899328  0.57328279  0.36706458     0.11660
H2723       H  0.61982320  0.56624315  0.39215205     0.11660
H2724       H  0.57424261  0.54523693  0.46048268     0.11660
C2725       C  0.42764125  0.71659551  0.63186139    -0.14470
C2726       C  0.44564622  0.69741126  0.62392109     0.07680
C2727       C  0.45966660  0.68326207  0.64312483    -0.14470
C2728       C  0.45524889  0.68777015  0.66981885    -0.14470
C2729       C  0.43702076  0.70677570  0.67774341     0.07680
C2730       C  0.42350682  0.72136195  0.65850736    -0.14470
H2731       H  0.41660612  0.72775982  0.61749816     0.11660
H2732       H  0.47361159  0.66822063  0.63752477     0.11660
H2733       H  0.46587485  0.67625231  0.68420944     0.11660
H2734       H  0.40919441  0.73608114  0.66403644     0.11660
C2735       C  0.48099564  0.76850582  0.53849295    -0.14470
C2736       C  0.49518279  0.74473933  0.53831428     0.07680
C2737       C  0.52273398  0.74589707  0.53873555    -0.14470
C2738       C  0.53572601  0.77020329  0.53969803    -0.14470
C2739       C  0.52147759  0.79390826  0.54080182     0.07680
C2740       C  0.49395595  0.79274494  0.53997136    -0.14470
H2741       H  0.45973558  0.76837075  0.53841673     0.11660
H2742       H  0.53423468  0.72801090  0.53874208     0.11660
H2743       H  0.55697149  0.77039296  0.54046395     0.11660
H2744       H  0.48240667  0.81058232  0.54080143     0.11660
C2745       C  0.46536190  0.65766140  0.45275262    -0.14470
C2746       C  0.45952748  0.64563102  0.47675952     0.07680
C2747       C  0.45668732  0.61822481  0.47785714    -0.14470
C2748       C  0.46006028  0.60288042  0.45538037    -0.14470
C2749       C  0.46678396  0.61464530  0.43139494     0.07680
C2750       C  0.46908418  0.64225460  0.43022929    -0.14470
H2751       H  0.46795179  0.67874176  0.45164214     0.11660
H2752       H  0.45232132  0.60863044  0.49635552     0.11660
H2753       H  0.45811274  0.58176196  0.45695306     0.11660
H2754       H  0.47421589  0.65192542  0.41199501     0.11660
C2755       C  0.38341751  0.61482821  0.56607075    -0.14470
C2756       C  0.41090934  0.61292581  0.56316733     0.07680
C2757       C  0.42271625  0.58808669  0.56419356    -0.14470
C2758       C  0.40735804  0.56559051  0.56708692    -0.14470
C2759       C  0.37996227  0.56744379  0.56959223     0.07680
C2760       C  0.36804515  0.59221333  0.56955804    -0.14470
H2761       H  0.37379308  0.63377951  0.56541259     0.11660
H2762       H  0.44375673  0.58596589  0.56197707     0.11660
H2763       H  0.41688301  0.54655390  0.56714322     0.11660
H2764       H  0.34693035  0.59397796  0.57131237     0.11660
C2765       C  0.67678232  0.40111178  0.07219534    -0.14470
C2766       C  0.69045986  0.42064889  0.08617338     0.07680
C2767       C  0.70968075  0.41327530  0.10436623    -0.14470
C2768       C  0.71477179  0.38674551  0.10887741    -0.14470
C2769       C  0.70041373  0.36721728  0.09556861     0.07680
C2770       C  0.68158057  0.37461681  0.07699554    -0.14470
H2771       H  0.66170464  0.40627781  0.05810697     0.11660
H2772       H  0.72045072  0.42795421  0.11534641     0.11660
H2773       H  0.72938130  0.38153595  0.12343371     0.11660
H2774       H  0.67027619  0.35996795  0.06652232     0.11660
C2775       C  0.54527550  0.67406484  0.14382976    -0.14470
C2776       C  0.55672935  0.69005352  0.12441871     0.07680
C2777       C  0.57318944  0.71072997  0.13202675    -0.14470
C2778       C  0.57870653  0.71490623  0.15851789    -0.14470
C2779       C  0.56813818  0.69826981  0.17788275     0.07680
C2780       C  0.55106358  0.67803747  0.17034189    -0.14470
H2781       H  0.53258723  0.65786733  0.13847255     0.11660
H2782       H  0.58222592  0.72334368  0.11747440     0.11660
H2783       H  0.59190849  0.73072505  0.16375668     0.11660
H2784       H  0.54257748  0.66500967  0.18485931     0.11660
C2785       C  0.52080391  0.75743684  0.02966784    -0.14470
C2786       C  0.50717246  0.73372115  0.03348728     0.07680
C2787       C  0.47962300  0.73427897  0.03484274    -0.14470
C2788       C  0.46611320  0.75823950  0.03341503    -0.14470
C2789       C  0.47998218  0.78202469  0.03114186     0.07680
C2790       C  0.50738815  0.78131699  0.02877656    -0.14470
H2791       H  0.54203278  0.75770670  0.02853701     0.11660
H2792       H  0.46860357  0.71632222  0.03772203     0.11660
H2793       H  0.44495097  0.75827539  0.03548261     0.11660
H2794       H  0.51853905  0.79933896  0.02697931     0.11660
C2795       C  0.58562538  0.58122565  0.06027769    -0.14470
C2796       C  0.59462760  0.60647915  0.06615353     0.07680
C2797       C  0.62044156  0.60981901  0.07557583    -0.14470
C2798       C  0.63714067  0.58814028  0.07863498    -0.14470
C2799       C  0.62838815  0.56309437  0.07148471     0.07680
C2800       C  0.60243702  0.55980688  0.06263016    -0.14470
H2801       H  0.56591356  0.57815625  0.05290029     0.11660
H2802       H  0.62774644  0.62921798  0.08030910     0.11660
H2803       H  0.65700362  0.59101983  0.08565024     0.11660
H2804       H  0.59513998  0.54051559  0.05740677     0.11660
C2805       C  0.40391884  0.42844425  0.21863780    -0.14470
C2806       C  0.41237261  0.45189230  0.20704597     0.07680
C2807       C  0.39372573  0.47109010  0.19996797    -0.14470
C2808       C  0.36702056  0.46661254  0.20378552    -0.14470
C2809       C  0.35866407  0.44311817  0.21519833     0.07680
C2810       C  0.37724165  0.42417325  0.22284256    -0.14470
H2811       H  0.41782379  0.41326958  0.22401103     0.11660
H2812       H  0.39971147  0.48938867  0.19092671     0.11660
H2813       H  0.35295034  0.48145689  0.19792280     0.11660
H2814       H  0.37104874  0.40574341  0.23149344     0.11660
C2815       C  0.49824966  0.53050060  0.25262897    -0.14470
C2816       C  0.49793291  0.50296658  0.25183595     0.07680
C2817       C  0.49708389  0.48902029  0.27575517    -0.14470
C2818       C  0.49563081  0.50229546  0.29982436    -0.14470
C2819       C  0.49543198  0.52984092  0.30057513     0.07680
C2820       C  0.49724036  0.54376605  0.27670694    -0.14470
H2821       H  0.49877609  0.54180435  0.23461427     0.11660
H2822       H  0.49658631  0.46776107  0.27585238     0.11660
H2823       H  0.49425400  0.49100645  0.31780333     0.11660
H2824       H  0.49702021  0.56502889  0.27655596     0.11660
C2825       C  0.60438514  0.47115026  0.14697945    -0.14470
C2826       C  0.60234097  0.47575360  0.11973979     0.07680
C2827       C  0.57747357  0.47624963  0.10805161    -0.14470
C2828       C  0.55502979  0.47342904  0.12342108    -0.14470
C2829       C  0.55698916  0.46946857  0.15066556     0.07680
C2830       C  0.58180640  0.46764388  0.16232579    -0.14470
H2831       H  0.62342349  0.47061377  0.15643727     0.11660
H2832       H  0.57532278  0.47983135  0.08719134     0.11660
H2833       H  0.53597408  0.47455022  0.11401314     0.11660
H2834       H  0.58367004  0.46452953  0.18328376     0.11660
C2835       C  0.45909172  0.35403264  0.90870733    -0.14470
C2836       C  0.44502144  0.33965450  0.92769167     0.07680
C2837       C  0.42665203  0.32093887  0.91949501    -0.14470
C2838       C  0.42217878  0.31691463  0.89278053    -0.14470
C2839       C  0.43572324  0.33180479  0.87381153     0.07680
C2840       C  0.45434333  0.35027561  0.88199264    -0.14470
H2841       H  0.47331974  0.36872837  0.91450347     0.11660
H2842       H  0.41556108  0.30964120  0.93370051     0.11660
H2843       H  0.40758198  0.30257753  0.88700023     0.11660
H2844       H  0.46502594  0.36196222  0.86778837     0.11660
C2845       C  0.49127617  0.24343976  0.01711446    -0.14470
C2846       C  0.51878563  0.24211918  0.01753148     0.07680
C2847       C  0.53323653  0.26569778  0.01789872    -0.14470
C2848       C  0.52049928  0.29003443  0.01685593    -0.14470
C2849       C  0.49300748  0.29135015  0.01595885     0.07680
C2850       C  0.47851998  0.26780429  0.01660812    -0.14470
H2851       H  0.47963761  0.22564958  0.01672984     0.11660
H2852       H  0.55449551  0.26534666  0.01800232     0.11660
H2853       H  0.53216675  0.30780541  0.01636975     0.11660
H2854       H  0.45727806  0.26818010  0.01577219     0.11660
C2855       C  0.48833518  0.39102262  0.08651387    -0.14470
C2856       C  0.46296374  0.38767920  0.07623244     0.07680
C2857       C  0.44161420  0.39969341  0.08891406    -0.14470
C2858       C  0.44581811  0.41569503  0.11094587    -0.14470
C2859       C  0.47130187  0.41923957  0.12081522     0.07680
C2860       C  0.49240031  0.40633594  0.10882859    -0.14470
H2861       H  0.50513236  0.38217256  0.07692819     0.11660
H2862       H  0.42195356  0.39775031  0.08105017     0.11660
H2863       H  0.42927827  0.42525651  0.12027737     0.11660
H2864       H  0.51216057  0.40872069  0.11635272     0.11660
C2865       C  0.34125655  0.63448749  0.97572955    -0.14470
C2866       C  0.32791907  0.61560653  0.96057967     0.07680
C2867       C  0.30954968  0.62395984  0.94186853    -0.14470
C2868       C  0.30485562  0.65078346  0.93821566    -0.14470
C2869       C  0.31872475  0.66961644  0.95297372     0.07680
C2870       C  0.33682199  0.66118739  0.97186388    -0.14470
H2871       H  0.35566691  0.62866740  0.99025515     0.11660
H2872       H  0.29903541  0.60983131  0.92996297     0.11660
H2873       H  0.29085445  0.65679343  0.92337439     0.11660
H2874       H  0.34779578  0.67523107  0.98345842     0.11660
C2875       C  0.37062023  0.44504288  0.97643474    -0.14470
C2876       C  0.38252993  0.46976788  0.97764703     0.07680
C2877       C  0.40967123  0.47153193  0.98231521    -0.14470
C2878       C  0.42469874  0.44901824  0.98634279    -0.14470
C2879       C  0.41276064  0.42426764  0.98634693     0.07680
C2880       C  0.38561887  0.42240705  0.98106928    -0.14470
H2881       H  0.34971746  0.44332645  0.97294073     0.11660
H2882       H  0.41924318  0.49052022  0.98312912     0.11660
H2883       H  0.44549794  0.45105177  0.99027169     0.11660
H2884       H  0.37595584  0.40346902  0.98078606     0.11660
C2885       C  0.65125531  0.57274439  0.85453572    -0.14470
C2886       C  0.65892969  0.59196056  0.83640050     0.07680
C2887       C  0.63950076  0.60572319  0.82229529    -0.14470
C2888       C  0.61292367  0.60077280  0.82659475    -0.14470
C2889       C  0.60522602  0.58165016  0.84476497     0.07680
C2890       C  0.62461104  0.56747363  0.85851808    -0.14470
H2891       H  0.66578868  0.56192732  0.86568476     0.11660
H2892       H  0.64481264  0.62080766  0.80826662     0.11660
H2893       H  0.59841135  0.61195154  0.81577446     0.11660
H2894       H  0.61915927  0.55270957  0.87283182     0.11660
C2895       C  0.51934227  0.54692630  0.77106512    -0.14470
C2896       C  0.51910473  0.53214357  0.79450175     0.07680
C2897       C  0.51796436  0.50470546  0.79282439    -0.14470
C2898       C  0.51755902  0.49230343  0.76833079    -0.14470
C2899       C  0.51873414  0.50699414  0.74487262     0.07680
C2900       C  0.51939627  0.53447805  0.74650633    -0.14470
H2901       H  0.52035535  0.56815648  0.77169900     0.11660
H2902       H  0.51777481  0.49279144  0.81045085     0.11660
H2903       H  0.51723139  0.47104711  0.76782083     0.11660
H2904       H  0.52041649  0.54631157  0.72885743     0.11660
C2905       C  0.45963441  0.56511189  0.92213130    -0.14470
C2906       C  0.45841591  0.56216210  0.89475635     0.07680
C2907       C  0.43436026  0.55646309  0.88280118    -0.14470
C2908       C  0.41186359  0.55298972  0.89829474    -0.14470
C2909       C  0.41313542  0.55550156  0.92587566     0.07680
C2910       C  0.43719860  0.56202000  0.93754527    -0.14470
H2911       H  0.47816125  0.56951486  0.93163408     0.11660
H2912       H  0.43316770  0.55390095  0.86172416     0.11660
H2913       H  0.39355657  0.54797530  0.88872094     0.11660
H2914       H  0.43884123  0.56410878  0.95864288     0.11660
C2915       C  0.56480280  0.61024302  0.94376316    -0.14470
C2916       C  0.54087016  0.60958505  0.93018302     0.07680
C2917       C  0.51946520  0.62412509  0.93956053    -0.14470
C2918       C  0.52163984  0.63851070  0.96273581    -0.14470
C2919       C  0.54555021  0.63935839  0.97633751     0.07680
C2920       C  0.56724970  0.62541994  0.96656772    -0.14470
H2921       H  0.58154778  0.59927058  0.93659780     0.11660
H2922       H  0.50086075  0.62381592  0.92923469     0.11660
H2923       H  0.50460569  0.64884641  0.97017887     0.11660
H2924       H  0.58570299  0.62543903  0.97714505     0.11660
C2925       C  0.08568287  0.71526591  0.41894859    -0.14470
C2926       C  0.06622515  0.69782696  0.42739768     0.07680
C2927       C  0.05155354  0.68376056  0.40863337    -0.14470
C2928       C  0.05674826  0.68668235  0.38183186    -0.14470
C2929       C  0.07640788  0.70398984  0.37349182     0.07680
C2930       C  0.09062432  0.71841437  0.39228482    -0.14470
H2931       H  0.09733546  0.72623891  0.43294711     0.11660
H2932       H  0.03649584  0.67002278  0.41468699     0.11660
H2933       H  0.04552275  0.67542827  0.36771389     0.11660
H2934       H  0.10606004  0.73181684  0.38641565     0.11660
C2935       C  0.99246200  0.75134819  0.51596279    -0.14470
C2936       C  0.01995541  0.74966294  0.51503927     0.07680
C2937       C  0.03465482  0.77309704  0.51533835    -0.14470
C2938       C  0.02213086  0.79763846  0.51560880    -0.14470
C2939       C  0.99461946  0.79931369  0.51614521     0.07680
C2940       C  0.97996304  0.77585958  0.51677410    -0.14470
H2941       H  0.98059103  0.73370902  0.51573641     0.11660
H2942       H  0.05588874  0.77248546  0.51447591     0.11660
H2943       H  0.03396141  0.81529594  0.51503262     0.11660
H2944       H  0.95871032  0.77643600  0.51697980     0.11660
C2945       C  0.15052384  0.57555254  0.69526010    -0.14470
C2946       C  0.15819058  0.59375800  0.71432892     0.07680
C2947       C  0.13880909  0.60730214  0.72868648    -0.14470
C2948       C  0.11220260  0.60306585  0.72370976    -0.14470
C2949       C  0.10454779  0.58487954  0.70461551     0.07680
C2950       C  0.12393106  0.57099209  0.69059984    -0.14470
H2951       H  0.16504200  0.56493672  0.68392161     0.11660
H2952       H  0.14421144  0.62164544  0.74341847     0.11660
H2953       H  0.09767092  0.61401990  0.73470314     0.11660
H2954       H  0.11854576  0.55696532  0.67555873     0.11660
C2955       C  0.02771849  0.65260449  0.59006866    -0.14470
C2956       C  0.05179491  0.65294894  0.57674849     0.07680
C2957       C  0.07240144  0.63686659  0.58561521    -0.14470
C2958       C  0.06856855  0.61989517  0.60696471    -0.14470
C2959       C  0.04433891  0.61945005  0.62002502     0.07680
C2960       C  0.02418819  0.63634607  0.61181844    -0.14470
H2961       H  0.01143752  0.66447292  0.58321970     0.11660
H2962       H  0.09090672  0.63638234  0.57514953     0.11660
H2963       H  0.08442323  0.60720303  0.61329290     0.11660
H2964       H  0.00538881  0.63632582  0.62177627     0.11660
C2965       C  0.16979619  0.40313597  0.47493511    -0.14470
C2966       C  0.18284328  0.42273398  0.46035107     0.07680
C2967       C  0.20135800  0.41529600  0.44148173    -0.14470
C2968       C  0.20679782  0.38873360  0.43736623    -0.14470
C2969       C  0.19349440  0.36915430  0.45172997     0.07680
C2970       C  0.17490546  0.37658813  0.47050261    -0.14470
H2971       H  0.15523188  0.40830144  0.48953585     0.11660
H2972       H  0.21160534  0.42995486  0.42996911     0.11660
H2973       H  0.22108570  0.38349425  0.42251925     0.11660
H2974       H  0.16436379  0.36191901  0.48173526     0.11660
C2975       C  0.25202721  0.50944224  0.49821938    -0.14470
C2976       C  0.22862698  0.50819222  0.51298613     0.07680
C2977       C  0.23049475  0.50751544  0.54048056    -0.14470
C2978       C  0.25517566  0.50772406  0.55282755    -0.14470
C2979       C  0.27854743  0.50810358  0.53795710     0.07680
C2980       C  0.27662550  0.50915319  0.51051187    -0.14470
H2981       H  0.25139294  0.50981370  0.47696605     0.11660
H2982       H  0.21292999  0.50646483  0.55240810     0.11660
H2983       H  0.25596714  0.50669982  0.57405348     0.11660
H2984       H  0.29416365  0.50939593  0.49849549     0.11660
C2985       C  0.12361956  0.61545163  0.47888551    -0.14470
C2986       C  0.09797354  0.61435815  0.48923485     0.07680
C2987       C  0.08731175  0.58994436  0.49595422    -0.14470
C2988       C  0.10220103  0.56712892  0.49310142    -0.14470
C2989       C  0.12786050  0.56809819  0.48285713     0.07680
C2990       C  0.13832260  0.59241531  0.47531339    -0.14470
H2991       H  0.13224279  0.63413190  0.47349605     0.11660
H2992       H  0.06770653  0.58856623  0.50407820     0.11660
H2993       H  0.09348967  0.54855669  0.49874318     0.11660
H2994       H  0.15795513  0.59364586  0.46725179     0.11660
C2995       C  0.88737410  0.47725817  0.36003803    -0.14470
C2996       C  0.90621292  0.46333584  0.34535193     0.07680
C2997       C  0.89781702  0.44566869  0.32606701    -0.14470
C2998       C  0.87111198  0.44153785  0.32189892    -0.14470
C2999       C  0.85222166  0.45472619  0.33716929     0.07680
C3000       C  0.86056548  0.47284774  0.35610491    -0.14470
H3001       H  0.89336028  0.49097921  0.37513079     0.11660
H3002       H  0.91188644  0.43474748  0.31445440     0.11660
H3003       H  0.86529675  0.42736157  0.30716303     0.11660
H3004       H  0.84643914  0.48325020  0.36811117     0.11660
C3005       C  0.06018294  0.45679664  0.41427875    -0.14470
C3006       C  0.05482369  0.47452872  0.39379307     0.07680
C3007       C  0.07120878  0.49629624  0.39018698    -0.14470
C3008       C  0.09272824  0.50026237  0.40668992    -0.14470
C3009       C  0.09769446  0.48308598  0.42775312     0.07680
C3010       C  0.08133070  0.46121370  0.43137833    -0.14470
H3011       H  0.04720673  0.44032282  0.41785583     0.11660
H3012       H  0.06696805  0.51054970  0.37495764     0.11660
H3013       H  0.10508111  0.51728091  0.40348215     0.11660
H3014       H  0.08492871  0.44759823  0.44732694     0.11660
C3015       C  0.93175951  0.32736270  0.63137031    -0.14470
C3016       C  0.94901298  0.34743313  0.62398045     0.07680
C3017       C  0.96202968  0.36198400  0.64353925    -0.14470
C3018       C  0.95732176  0.35699089  0.67007547    -0.14470
C3019       C  0.93981498  0.33711222  0.67745837     0.07680
C3020       C  0.92734649  0.32212062  0.65787027    -0.14470
H3021       H  0.92152791  0.31587509  0.61669225     0.11660
H3022       H  0.97536979  0.37770627  0.63833356     0.11660
H3023       H  0.96710650  0.36884709  0.68476212     0.11660
H3024       H  0.91359534  0.30673215  0.66300016     0.11660
C3025       C  0.98594805  0.27809428  0.53639011    -0.14470
C3026       C  0.99996939  0.30189139  0.53760994     0.07680
C3027       C  0.02751755  0.30097151  0.53840983    -0.14470
C3028       C  0.04068490  0.27676409  0.53850757    -0.14470
C3029       C  0.02655643  0.25299307  0.53833765     0.07680
C3030       C  0.99905986  0.25395905  0.53699952    -0.14470
H3031       H  0.96469132  0.27807536  0.53592312     0.11660
H3032       H  0.03885332  0.31892975  0.53942166     0.11660
H3033       H  0.06191143  0.27665154  0.53971163     0.11660
H3034       H  0.98763594  0.23602405  0.53685295     0.11660
C3035       C  0.97469882  0.42647673  0.47785375    -0.14470
C3036       C  0.96491082  0.40065870  0.47745077     0.07680
C3037       C  0.95610635  0.38998491  0.45367777    -0.14470
C3038       C  0.95815537  0.40464786  0.43045195    -0.14470
C3039       C  0.96816864  0.43043195  0.43093858     0.07680
C3040       C  0.97601693  0.44132481  0.45490148    -0.14470
H3041       H  0.98119517  0.43530325  0.49608488     0.11660
H3042       H  0.94831378  0.37021307  0.45298700     0.11660
H3043       H  0.95199167  0.39585165  0.41210199     0.11660
H3044       H  0.98397828  0.46103028  0.45576143     0.11660
C3045       C  0.84027347  0.64282589  0.56983171    -0.14470
C3046       C  0.82715963  0.62319682  0.58424040     0.07680
C3047       C  0.80843881  0.63056477  0.60298499    -0.14470
C3048       C  0.80324196  0.65710735  0.60752113    -0.14470
C3049       C  0.81693544  0.67671650  0.59363906     0.07680
C3050       C  0.83533475  0.66932948  0.57460791    -0.14470
H3051       H  0.85490404  0.63773277  0.55527219     0.11660
H3052       H  0.79807179  0.61586188  0.61433142     0.11660
H3053       H  0.78899116  0.66227893  0.62242505     0.11660
H3054       H  0.84612332  0.68401752  0.56363773     0.11660
C3055       C  0.75960688  0.53092217  0.54802477    -0.14470
C3056       C  0.78308456  0.53407629  0.53376731     0.07680
C3057       C  0.78189558  0.53463617  0.50623523    -0.14470
C3058       C  0.75769441  0.53261843  0.49329351    -0.14470
C3059       C  0.73413563  0.53049357  0.50762313     0.07680
C3060       C  0.73539884  0.52940229  0.53511742    -0.14470
H3061       H  0.75983009  0.53052848  0.56928629     0.11660
H3062       H  0.79960990  0.53704300  0.49472730     0.11660
H3063       H  0.75734589  0.53375261  0.47205877     0.11660
H3064       H  0.71762171  0.52786437  0.54667835     0.11660
C3065       C  0.88085156  0.45727927  0.58411591    -0.14470
C3066       C  0.88249165  0.47725153  0.56511375     0.07680
C3067       C  0.90023162  0.47427781  0.54409491    -0.14470
C3068       C  0.91642063  0.45230736  0.54244084    -0.14470
C3069       C  0.91493629  0.43260844  0.56146390     0.07680
C3070       C  0.89678600  0.43487913  0.58208849    -0.14470
H3071       H  0.86753976  0.45910626  0.60058721     0.11660
H3072       H  0.90209473  0.48926350  0.52910989     0.11660
H3073       H  0.92994415  0.45052403  0.52610618     0.11660
H3074       H  0.89521891  0.41951292  0.59672345     0.11660
C3075       C  0.93914717  0.56021569  0.60576879    -0.14470
C3076       C  0.91427219  0.56375848  0.61687087     0.07680
C3077       C  0.91227741  0.57000175  0.64376986    -0.14470
C3078       C  0.93487829  0.57237771  0.65933636    -0.14470
C3079       C  0.95962731  0.56767240  0.64832826     0.07680
C3080       C  0.96154727  0.56183851  0.62140626    -0.14470
H3081       H  0.94123732  0.55527045  0.58519037     0.11660
H3082       H  0.89322792  0.57285925  0.65276694     0.11660
H3083       H  0.93300091  0.57705526  0.67999177     0.11660
H3084       H  0.98053330  0.55854389  0.61239559     0.11660
C3085       C  0.92347460  0.72391151  0.91778872    -0.14470
C3086       C  0.94296993  0.70613289  0.92552341     0.07680
C3087       C  0.95807563  0.69339567  0.90617817    -0.14470
C3088       C  0.95323630  0.69775567  0.87956443    -0.14470
C3089       C  0.93347882  0.71522855  0.87184095     0.07680
C3090       C  0.91889815  0.72856124  0.89117555    -0.14470
H3091       H  0.91154540  0.73392148  0.93226172     0.11660
H3092       H  0.97319849  0.67945085  0.91158507     0.11660
H3093       H  0.96475509  0.68730584  0.86506906     0.11660
H3094       H  0.90342093  0.74210069  0.88573511     0.11660
C3095       C  0.01850366  0.75135227  0.01735082    -0.14470
C3096       C  0.99104554  0.75045899  0.01586423     0.07680
C3097       C  0.97684921  0.77419677  0.01664704    -0.14470
C3098       C  0.98993151  0.79838397  0.01771322    -0.14470
C3099       C  0.01744723  0.79926734  0.01854500     0.07680
C3100       C  0.03153441  0.77545356  0.01892923    -0.14470
H3101       H  0.02994513  0.73343199  0.01680715     0.11660
H3102       H  0.95562533  0.77412310  0.01538616     0.11660
H3103       H  0.97857157  0.81635694  0.01731362     0.11660
H3104       H  0.05279110  0.77542689  0.01939551     0.11660
C3105       C  0.88753752  0.56653720  0.18525923    -0.14470
C3106       C  0.90664119  0.58031484  0.19974639     0.07680
C3107       C  0.89861379  0.59782075  0.21932923    -0.14470
C3108       C  0.87195004  0.60181102  0.22406688    -0.14470
C3109       C  0.85282743  0.58870281  0.20900486     0.07680
C3110       C  0.86083820  0.57087031  0.18969392    -0.14470
H3111       H  0.89322148  0.55297053  0.16991172     0.11660
H3112       H  0.91291551  0.60864294  0.23075002     0.11660
H3113       H  0.86631825  0.61584834  0.23900557     0.11660
H3114       H  0.84651417  0.56058537  0.17781474     0.11660
C3115       C  0.99572947  0.54734640  0.26930773    -0.14470
C3116       C  0.99479004  0.53273752  0.24584091     0.07680
C3117       C  0.99457449  0.50521063  0.24744636    -0.14470
C3118       C  0.99475821  0.49263978  0.27198719    -0.14470
C3119       C  0.99463596  0.50733856  0.29542206     0.07680
C3120       C  0.99540546  0.53482080  0.29376983    -0.14470
H3121       H  0.99573891  0.56860727  0.26881924     0.11660
H3122       H  0.99377286  0.49342510  0.22977443     0.11660
H3123       H  0.99398801  0.47139773  0.27261647     0.11660
H3124       H  0.99530160  0.54668003  0.31141449     0.11660
C3125       C  0.95654475  0.64205999  0.11718449    -0.14470
C3126       C  0.96494281  0.61579564  0.11461281     0.07680
C3127       C  0.96923142  0.60551808  0.08951144    -0.14470
C3128       C  0.96630489  0.62146362  0.06744646    -0.14470
C3129       C  0.95837578  0.64780107  0.06994338     0.07680
C3130       C  0.95285851  0.65788131  0.09491029    -0.14470
H3131       H  0.95303500  0.65037300  0.13643521     0.11660
H3132       H  0.97580762  0.58544475  0.08700467     0.11660
H3133       H  0.97039350  0.61321411  0.04826850     0.11660
H3134       H  0.94667907  0.67809619  0.09721864     0.11660
C3135       C  0.20508207  0.62542367  0.10623924    -0.14470
C3136       C  0.18703938  0.61772077  0.08695202     0.07680
C3137       C  0.17406887  0.63706670  0.07206660    -0.14470
C3138       C  0.17841114  0.66364011  0.07694364    -0.14470
C3139       C  0.19605471  0.67136354  0.09656626     0.07680
C3140       C  0.20968222  0.65204242  0.11089185    -0.14470
H3141       H  0.21532864  0.61091862  0.11795557     0.11660
H3142       H  0.15996493  0.63169130  0.05708876     0.11660
H3143       H  0.16769390  0.67811986  0.06562128     0.11660
H3144       H  0.22335023  0.65748911  0.12624299     0.11660
C3145       C  0.23477857  0.52900020  0.01068643    -0.14470
C3146       C  0.23379410  0.52983490  0.03820461     0.07680
C3147       C  0.25756385  0.52944753  0.05235469    -0.14470
C3148       C  0.28178865  0.52929635  0.03921171    -0.14470
C3149       C  0.28273394  0.52899329  0.01164932     0.07680
C3150       C  0.25891994  0.52833132  0.99759200    -0.14470
H3151       H  0.21685820  0.52929129  0.99923751     0.11660
H3152       H  0.25745057  0.53025745  0.07360347     0.11660
H3153       H  0.29974422  0.52988341  0.05058534     0.11660
H3154       H  0.25890141  0.52826010  0.97632576     0.11660
C3155       C  0.07566361  0.56040501  0.10477961    -0.14470
C3156       C  0.10001260  0.55928214  0.11756139     0.07680
C3157       C  0.10094883  0.56306446  0.14499060    -0.14470
C3158       C  0.07784811  0.56738470  0.15937219    -0.14470
C3159       C  0.05353793  0.56739868  0.14653890     0.07680
C3160       C  0.05266518  0.56412170  0.11917376    -0.14470
H3161       H  0.07429186  0.55758829  0.08374585     0.11660
H3162       H  0.11950808  0.56239993  0.15534619     0.11660
H3163       H  0.07885650  0.56967773  0.18048929     0.11660
H3164       H  0.03400352  0.56411622  0.10894141     0.11660
C3165       C  0.84096977  0.40685683  0.97768723    -0.14470
C3166       C  0.82872493  0.42562675  0.96142167     0.07680
C3167       C  0.81213549  0.41717909  0.94122823    -0.14470
C3168       C  0.80800332  0.39038126  0.93729055    -0.14470
C3169       C  0.82073521  0.37166437  0.95321171     0.07680
C3170       C  0.83718611  0.38010959  0.97347085    -0.14470
H3171       H  0.85402920  0.41280707  0.99337719     0.11660
H3172       H  0.80257757  0.43121243  0.92840653     0.11660
H3173       H  0.79534112  0.38428249  0.92133180     0.11660
H3174       H  0.84717136  0.36606690  0.98595758     0.11660
C3175       C  0.78064104  0.51264466  0.03919198    -0.14470
C3176       C  0.78189003  0.51196842  0.01168660     0.07680
C3177       C  0.75824132  0.51148262  0.99731259    -0.14470
C3178       C  0.73395310  0.51054070  0.01013756    -0.14470
C3179       C  0.73271279  0.51057419  0.03764339     0.07680
C3180       C  0.75630722  0.51221031  0.05202214    -0.14470
H3181       H  0.79846275  0.51298107  0.05078710     0.11660
H3182       H  0.75850636  0.51079024  0.97605998     0.11660
H3183       H  0.71617955  0.50923768  0.99853501     0.11660
H3184       H  0.75602881  0.51209206  0.07328565     0.11660
C3185       C  0.90413087  0.57275671  0.99588520    -0.14470
C3186       C  0.88119303  0.57211330  0.98045206     0.07680
C3187       C  0.87350976  0.59486484  0.96687716    -0.14470
C3188       C  0.88832916  0.61797477  0.96925275    -0.14470
C3189       C  0.91141509  0.61817418  0.98439536     0.07680
C3190       C  0.91922720  0.59542519  0.99755302    -0.14470
H3191       H  0.91076089  0.55551167  0.00643849     0.11660
H3192       H  0.85604982  0.59483346  0.95474262     0.11660
H3193       H  0.88194476  0.63559462  0.95917746     0.11660
H3194       H  0.93668896  0.59540206  0.00971959     0.11660
C3195       C  0.05634704  0.35275770  0.14164827    -0.14470
C3196       C  0.07179627  0.34004976  0.12257811     0.07680
C3197       C  0.09119413  0.32228731  0.13063382    -0.14470
C3198       C  0.09520359  0.31755270  0.15738555    -0.14470
C3199       C  0.08014993  0.33084028  0.17639585     0.07680
C3200       C  0.06060325  0.34833878  0.16827085    -0.14470
H3201       H  0.04128657  0.36669189  0.13603401     0.11660
H3202       H  0.10332186  0.31227036  0.11633423     0.11660
H3203       H  0.11056607  0.30404342  0.16320819     0.11660
H3204       H  0.04877440  0.35882270  0.18249292     0.11660
C3205       C  0.99295872  0.29307839  0.03736244    -0.14470
C3206       C  0.02045837  0.29419638  0.03728117     0.07680
C3207       C  0.03473577  0.27047359  0.03757573    -0.14470
C3208       C  0.02181111  0.24622659  0.03896762    -0.14470
C3209       C  0.99430731  0.24514672  0.03962075     0.07680
C3210       C  0.98003846  0.26883361  0.03828374    -0.14470
H3211       H  0.98143442  0.31095143  0.03722715     0.11660
H3212       H  0.05599529  0.27066029  0.03772763     0.11660
H3213       H  0.03333167  0.22838034  0.04000809     0.11660
H3214       H  0.95878722  0.26870965  0.03889249     0.11660
C3215       C  0.11016588  0.43455873  0.08676818    -0.14470
C3216       C  0.10328785  0.42611816  0.06147417     0.07680
C3217       C  0.11322406  0.43935832  0.03953840    -0.14470
C3218       C  0.12902421  0.46147110  0.04275603    -0.14470
C3219       C  0.13570019  0.47037556  0.06800484     0.07680
C3220       C  0.12651188  0.45648498  0.09003057    -0.14470
H3221       H  0.10297471  0.42416340  0.10388043     0.11660
H3222       H  0.10835006  0.43280890  0.01988770     0.11660
H3223       H  0.13570840  0.47190044  0.02545561     0.11660
H3224       H  0.13107582  0.46319741  0.10968169     0.11660
C3225       C  0.11276439  0.44022339  0.82780664    -0.14470
C3226       C  0.10447331  0.45801155  0.84703594     0.07680
C3227       C  0.12337623  0.47175126  0.86180024    -0.14470
C3228       C  0.15011410  0.46725865  0.85787235    -0.14470
C3229       C  0.15839622  0.44921388  0.83886985     0.07680
C3230       C  0.13948983  0.43599375  0.82363801    -0.14470
H3231       H  0.09861972  0.42940929  0.81618450     0.11660
H3232       H  0.11749919  0.48552664  0.87688639     0.11660
H3233       H  0.16425750  0.47767333  0.86985349     0.11660
H3234       H  0.14532605  0.42184977  0.80888053     0.11660
C3235       C  0.01764309  0.53341551  0.79706565    -0.14470
C3236       C  0.01738832  0.50590283  0.79806659     0.07680
C3237       C  0.01657987  0.49177599  0.77428207    -0.14470
C3238       C  0.01700596  0.50491653  0.75002762    -0.14470
C3239       C  0.01772827  0.53246031  0.74909084     0.07680
C3240       C  0.01757267  0.54651242  0.77292026    -0.14470
H3241       H  0.01831309  0.54485017  0.81497703     0.11660
H3242       H  0.01655918  0.47051200  0.77440996     0.11660
H3243       H  0.01716956  0.49355498  0.73206364     0.11660
H3244       H  0.01829461  0.56776647  0.77296043     0.11660
C3245       C  0.94941470  0.45661267  0.91532789    -0.14470
C3246       C  0.95606038  0.47403563  0.89498838     0.07680
C3247       C  0.94083167  0.49659894  0.89101686    -0.14470
C3248       C  0.91917206  0.50165071  0.90703426    -0.14470
C3249       C  0.91298835  0.48476863  0.92797636     0.07680
C3250       C  0.92816969  0.46210873  0.93195070    -0.14470
H3251       H  0.96148199  0.43951660  0.91918107     0.11660
H3252       H  0.94610446  0.51061615  0.87589514     0.11660
H3253       H  0.90769397  0.51923132  0.90357961     0.11660
H3254       H  0.92355815  0.44869748  0.94780930     0.11660
C3255       C  0.05510162  0.38346873  0.95255882    -0.14470
C3256       C  0.05135957  0.39493110  0.97725737     0.07680
C3257       C  0.04468706  0.42167904  0.97886782    -0.14470
C3258       C  0.04135564  0.43671475  0.95623802    -0.14470
C3259       C  0.04405886  0.42516849  0.93145882     0.07680
C3260       C  0.05109818  0.39842907  0.92975986    -0.14470
H3261       H  0.06029808  0.36291395  0.95091724     0.11660
H3262       H  0.04203601  0.43101401  0.99779855     0.11660
H3263       H  0.03594930  0.45719753  0.95813561     0.11660
H3264       H  0.05342589  0.38909442  0.91080247     0.11660
loop_ 
_geom_bond_atom_site_label_1 
_geom_bond_atom_site_label_2 
_geom_bond_distance 
_geom_bond_site_symmetry_2 
_ccdc_geom_bond_type 
O1            V9   1.910       .  S
O1           C11   1.269       .  A
O2            V9   1.910       .  S
O2           C12   1.269       .  A
O3            V9   1.881       .  S
O3           C13   1.260       .  A
O4            V9   1.883   1_655  S
O4           C14   1.259       .  A
O5           V10   1.916   1_655  S
O5           C14   1.268       .  A
O6           V10   1.907       .  S
O6           C13   1.268       .  A
O7           V10   1.891       .  S
O7           C12   1.261       .  A
O8           V10   1.900       .  S
O8           C11   1.264       .  A
V9           V10   2.084       .  T
C11        C3236   1.486       .  S
C12        C3259   1.477       .  S
C13        C3226   1.472       .  S
C14        C3246   1.468       .  S
O15          V23   1.919       .  S
O15          C25   1.269       .  A
O16          V23   1.915       .  S
O16          C26   1.270       .  A
O17          V23   1.891       .  S
O17          C27   1.262       .  A
O18          V23   1.888       .  S
O18          C28   1.259       .  A
O19          V24   1.912       .  S
O19          C28   1.267       .  A
O20          V24   1.916       .  S
O20          C27   1.270       .  A
O21          V24   1.871       .  S
O21          C26   1.257       .  A
O22          V24   1.877       .  S
O22          C25   1.259       .  A
V23          V24   2.087       .  T
C25        C3256   1.472   1_554  S
C26        C3196   1.472       .  S
C27        C3206   1.484       .  S
C28        C3216   1.465       .  S
O29          V37   1.918       .  S
O29          C39   1.269       .  A
O30          V37   1.915       .  S
O30          C40   1.270       .  A
O31          V37   1.890       .  S
O31          C41   1.261       .  A
O32          V37   1.885       .  S
O32          C42   1.260       .  A
O33          V38   1.917       .  S
O33          C42   1.269       .  A
O34          V38   1.918   1_554  S
O34          C41   1.270   1_554  A
O35          V38   1.869       .  S
O35          C40   1.256       .  A
O36          V38   1.874       .  S
O36          C39   1.259       .  A
V37          V38   2.086       .  T
C39        C3186   1.477       .  S
C40        C3166   1.471       .  S
C41        C3176   1.485   1_556  S
C42        C3249   1.474       .  S
O43          V51   1.915       .  S
O43          C53   1.269       .  A
O44          V51   1.907       .  S
O44          C54   1.268       .  A
O45          V51   1.895       .  S
O45          C55   1.262       .  A
O46          V51   1.902       .  S
O46          C56   1.264       .  A
O47          V52   1.909       .  S
O47          C56   1.268       .  A
O48          V52   1.909       .  S
O48          C55   1.268       .  A
O49          V52   1.881       .  S
O49          C54   1.260       .  A
O50          V52   1.882       .  S
O50          C53   1.260       .  A
V51          V52   2.085       .  T
C53        C3219   1.475       .  S
C54        C3136   1.472       .  S
C55        C3156   1.481       .  S
C56        C3146   1.486       .  S
O57          V65   1.919       .  S
O57          C67   1.270       .  A
O58          V65   1.911       .  S
O58          C68   1.269       .  A
O59          V65   1.881   1_455  S
O59          C69   1.259       .  A
O60          V65   1.881       .  S
O60          C70   1.259       .  A
O61          V66   1.909       .  S
O61          C70   1.268       .  A
O62          V66   1.919   1_455  S
O62          C69   1.269       .  A
O63          V66   1.890       .  S
O63          C68   1.260       .  A
O64          V66   1.890       .  S
O64          C67   1.262       .  A
V65          V66   2.087       .  T
C67        C3116   1.487       .  S
C68        C3126   1.475       .  S
C69        C3159   1.470       .  S
C70        C3106   1.472       .  S
O71          V79   1.920       .  S
O71          C81   1.269       .  A
O72          V79   1.909   1_556  S
O72          C82   1.269       .  A
O73          V79   1.891   1_556  S
O73          C83   1.260       .  A
O74          V79   1.894       .  S
O74          C84   1.262       .  A
O75          V80   1.910   1_554  S
O75          C84   1.269       .  A
O76          V80   1.904       .  S
O76          C83   1.267       .  A
O77          V80   1.879       .  S
O77          C82   1.259       .  A
O78          V80   1.877   1_554  S
O78          C81   1.259       .  A
V79          V80   2.087   1_554  T
C81        C3129   1.472       .  S
C82        C3086   1.473       .  S
C83        C3189   1.464       .  S
C84        C3096   1.482       .  S
O85          V93   1.914       .  S
O85          C95   1.269       .  A
O86          V93   1.911       .  S
O86          C96   1.269       .  A
O87          V93   1.877       .  S
O87          C97   1.260       .  A
O88          V93   1.879       .  S
O88          C98   1.259       .  A
O89          V94   1.911       .  S
O89          C98   1.269       .  A
O90          V94   1.919       .  S
O90          C97   1.270       .  A
O91          V94   1.890       .  S
O91          C96   1.260       .  A
O92          V94   1.893       .  S
O92          C95   1.263       .  A
V93          V94   2.085       .  T
C95        C3056   1.484       .  S
C96        C3076   1.476       .  S
C97        C3066   1.481       .  S
C98        C3046   1.474       .  S
O99         V107   1.916       .  S
O99         C109   1.269       .  A
O100        V107   1.908       .  S
O100        C110   1.267       .  A
O101        V107   1.881       .  S
O101        C111   1.259       .  A
O102        V107   1.880       .  S
O102        C112   1.260       .  A
O103        V108   1.915       .  S
O103        C112   1.268       .  A
O104        V108   1.906       .  S
O104        C111   1.268       .  A
O105        V108   1.892       .  S
O105        C110   1.260       .  A
O106        V108   1.893       .  S
O106        C109   1.263       .  A
V107        V108   2.087       .  T
C109       C3026   1.486       .  S
C110       C3069   1.464       .  S
C111       C3016   1.471       .  S
C112       C3036   1.472       .  S
O113        V121   1.910       .  S
O113        C123   1.269       .  A
O114        V121   1.909       .  S
O114        C124   1.269       .  A
O115        V121   1.886   1_455  S
O115        C125   1.260       .  A
O116        V121   1.887       .  S
O116        C126   1.261       .  A
O117        V122   1.904       .  S
O117        C126   1.268       .  A
O118        V122   1.914   1_455  S
O118        C125   1.268       .  A
O119        V122   1.890       .  S
O119        C124   1.261       .  A
O120        V122   1.900       .  S
O120        C123   1.264       .  A
V121        V122   2.083       .  T
C123       C3119   1.485       .  S
C124       C3039   1.473       .  S
C125       C3006   1.469       .  S
C126       C2996   1.473       .  S
O127        V135   1.927       .  S
O127        C137   1.273       .  A
O128        V135   1.921       .  S
O128        C138   1.270       .  A
O129        V135   1.873       .  S
O129        C139   1.257       .  A
O130        V135   1.880       .  S
O130        C140   1.259       .  A
O131        V136   1.921       .  S
O131        C140   1.270       .  A
O132        V136   1.918       .  S
O132        C139   1.271       .  A
O133        V136   1.883       .  S
O133        C138   1.259       .  A
O134        V136   1.888       .  S
O134        C137   1.261       .  A
V135        V136   2.085       .  T
C137       C2976   1.491       .  S
C138       C3009   1.477       .  S
C139       C2966   1.474       .  S
C140       C2989   1.478       .  S
O141        V149   1.922       .  S
O141        C151   1.271       .  A
O142        V149   1.915       .  S
O142        C152   1.268       .  A
O143        V149   1.875       .  S
O143        C153   1.258       .  A
O144        V149   1.880       .  S
O144        C154   1.259   1_455  A
O145        V150   1.917   1_655  S
O145        C154   1.269       .  A
O146        V150   1.913       .  S
O146        C153   1.270       .  A
O147        V150   1.883       .  S
O147        C152   1.259       .  A
O148        V150   1.887       .  S
O148        C151   1.261       .  A
V149        V150   2.086       .  T
C151       C3239   1.487       .  S
C152       C2959   1.468       .  S
C153       C2949   1.472       .  S
C154       C3079   1.473       .  S
O155        V163   1.912       .  S
O155        C165   1.267       .  A
O156        V163   1.901       .  S
O156        C166   1.267       .  A
O157        V163   1.900       .  S
O157        C167   1.264       .  A
O158        V163   1.892       .  S
O158        C168   1.261       .  A
O159        V164   1.913       .  S
O159        C168   1.270       .  A
O160        V164   1.914       .  S
O160        C167   1.269       .  A
O161        V164   1.884       .  S
O161        C166   1.260       .  A
O162        V164   1.883       .  S
O162        C165   1.260       .  A
V163        V164   2.083       .  T
C165       C2956   1.468       .  S
C166       C2926   1.471       .  S
C167       C2936   1.488       .  S
C168       C2986   1.477       .  S
O169        V177   1.916       .  S
O169        C179   1.270       .  A
O170        V177   1.910       .  S
O170        C180   1.267       .  A
O171        V177   1.886       .  S
O171        C181   1.260       .  A
O172        V177   1.883       .  S
O172        C182   1.259       .  A
O173        V178   1.910       .  S
O173        C182   1.269       .  A
O174        V178   1.913       .  S
O174        C181   1.267       .  A
O175        V178   1.886       .  S
O175        C180   1.260       .  A
O176        V178   1.892       .  S
O176        C179   1.261       .  A
V177        V178   2.087       .  T
C179       C2896   1.485       .  S
C180       C2916   1.465       .  S
C181       C2906   1.467       .  S
C182       C2889   1.474       .  S
O183        V191   1.918   1_554  S
O183        C193   1.270   1_554  A
O184        V191   1.912       .  S
O184        C194   1.269       .  A
O185        V191   1.874       .  S
O185        C195   1.258       .  A
O186        V191   1.875       .  S
O186        C196   1.258       .  A
O187        V192   1.920       .  S
O187        C196   1.269       .  A
O188        V192   1.915       .  S
O188        C195   1.269       .  A
O189        V192   1.891       .  S
O189        C194   1.261       .  A
O190        V192   1.892       .  S
O190        C193   1.262       .  A
V191        V192   2.086       .  T
C193       C3149   1.487   1_556  S
C194       C2909   1.482       .  S
C195       C2866   1.474       .  S
C196       C2876   1.469       .  S
O197        V205   1.918       .  S
O197        C207   1.269       .  A
O198        V205   1.909   1_556  S
O198        C208   1.269       .  A
O199        V205   1.895       .  S
O199        C209   1.263       .  A
O200        V205   1.888   1_556  S
O200        C210   1.260       .  A
O201        V206   1.911       .  S
O201        C210   1.269       .  A
O202        V206   1.911   1_554  S
O202        C209   1.269       .  A
O203        V206   1.880       .  S
O203        C208   1.259       .  A
O204        V206   1.881   1_554  S
O204        C207   1.259       .  A
V205        V206   2.085   1_554  T
C207       C2856   1.474       .  S
C208       C2836   1.472       .  S
C209       C2849   1.483       .  S
C210       C2879   1.477       .  S
O211        V219   1.916       .  S
O211        C221   1.270       .  A
O212        V219   1.913       .  S
O212        C222   1.267       .  A
O213        V219   1.872       .  S
O213        C223   1.257       .  A
O214        V219   1.879       .  S
O214        C224   1.259       .  A
O215        V220   1.915       .  S
O215        C224   1.268       .  A
O216        V220   1.909       .  S
O216        C223   1.269       .  A
O217        V220   1.890       .  S
O217        C222   1.260       .  A
O218        V220   1.894       .  S
O218        C221   1.263       .  A
V219        V220   2.085       .  T
C221       C2816   1.487       .  S
C222       C2859   1.468       .  S
C223       C2806   1.469       .  S
C224       C2829   1.469       .  S
O225        V233   1.887       .  S
O225        C235   1.261       .  A
O226        V233   1.889       .  S
O226        C236   1.262       .  A
O227        V233   1.911       .  S
O227        C237   1.268       .  A
O228        V233   1.909       .  S
O228        C238   1.269       .  A
O229        V234   1.887       .  S
O229        C238   1.260       .  A
O230        V234   1.891       .  S
O230        C237   1.263       .  A
O231        V234   1.902       .  S
O231        C236   1.267       .  A
O232        V234   1.909       .  S
O232        C235   1.267       .  A
V233        V234   2.083       .  T
C235       C2919   1.468   1_554  S
C236       C2776   1.473       .  S
C237       C2786   1.482       .  S
C238       C2796   1.472       .  S
O239        V247   1.910       .  S
O239        C249   1.269       .  A
O240        V247   1.918       .  S
O240        C250   1.269       .  A
O241        V247   1.889       .  S
O241        C251   1.260       .  A
O242        V247   1.893       .  S
O242        C252   1.262       .  A
O243        V248   1.914       .  S
O243        C252   1.269       .  A
O244        V248   1.909       .  S
O244        C251   1.269       .  A
O245        V248   1.873       .  S
O245        C250   1.258       .  A
O246        V248   1.873       .  S
O246        C249   1.257       .  A
V247        V248   2.087       .  T
C249       C2766   1.469       .  S
C250       C2799   1.470       .  S
C251       C2826   1.475       .  S
C252       C3179   1.484       .  S
O253        V261   1.917       .  S
O253        C263   1.268       .  A
O254        V261   1.908       .  S
O254        C264   1.268       .  A
O255        V261   1.897       .  S
O255        C265   1.263       .  A
O256        V261   1.894       .  S
O256        C266   1.262       .  A
O257        V262   1.910       .  S
O257        C266   1.269       .  A
O258        V262   1.919       .  S
O258        C265   1.270       .  A
O259        V262   1.883       .  S
O259        C264   1.260       .  A
O260        V262   1.885       .  S
O260        C263   1.260       .  A
V261        V262   2.087       .  T
C263       C2746   1.470       .  S
C264       C2726   1.474       .  S
C265       C2736   1.490       .  S
C266       C2756   1.481       .  S
O267        V275   1.918       .  S
O267        C277   1.269       .  A
O268        V275   1.912       .  S
O268        C278   1.269       .  A
O269        V275   1.893       .  S
O269        C279   1.262       .  A
O270        V275   1.893       .  S
O270        C280   1.262       .  A
O271        V276   1.918       .  S
O271        C280   1.270       .  A
O272        V276   1.914       .  S
O272        C279   1.270       .  A
O273        V276   1.874       .  S
O273        C278   1.258       .  A
O274        V276   1.874       .  S
O274        C277   1.258       .  A
V275        V276   2.086       .  T
C277       C2716   1.469       .  S
C278       C2706   1.471       .  S
C279       C2749   1.484       .  S
C280       C2819   1.488       .  S
O281        V289   1.916       .  S
O281        C291   1.268       .  A
O282        V289   1.905       .  S
O282        C292   1.268       .  A
O283        V289   1.896       .  S
O283        C293   1.263       .  A
O284        V289   1.892       .  S
O284        C294   1.261       .  A
O285        V290   1.903       .  S
O285        C294   1.267       .  A
O286        V290   1.910       .  S
O286        C293   1.268       .  A
O287        V290   1.882       .  S
O287        C292   1.259       .  A
O288        V290   1.882       .  S
O288        C291   1.259       .  A
V289        V290   2.088       .  T
C291       C2696   1.467       .  S
C292       C2686   1.471       .  S
C293       C3059   1.483       .  S
C294       C2719   1.472       .  S
O295        V303   1.912       .  S
O295        C305   1.267       .  A
O296        V303   1.905       .  S
O296        C306   1.268       .  A
O297        V303   1.891       .  S
O297        C307   1.261       .  A
O298        V303   1.895       .  S
O298        C308   1.263       .  A
O299        V304   1.918       .  S
O299        C308   1.270       .  A
O300        V304   1.913       .  S
O300        C307   1.270       .  A
O301        V304   1.878       .  S
O301        C306   1.258       .  A
O302        V304   1.880       .  S
O302        C305   1.258       .  A
V303        V304   2.087       .  T
C305       C2676   1.461       .  S
C306       C2656   1.468       .  S
C307       C2699   1.482       .  S
C308       C2666   1.489       .  S
O309        V317   1.921       .  S
O309        C319   1.271       .  A
O310        V317   1.915       .  S
O310        C320   1.270       .  A
O311        V317   1.880       .  S
O311        C321   1.259       .  A
O312        V317   1.874       .  S
O312        C322   1.257       .  A
O313        V318   1.917       .  S
O313        C322   1.270       .  A
O314        V318   1.922       .  S
O314        C321   1.270       .  A
O315        V318   1.882       .  S
O315        C320   1.259       .  A
O316        V318   1.885       .  S
O316        C319   1.260       .  A
V317        V318   2.086       .  T
C319       C2899   1.485       .  S
C320       C2679   1.478       .  S
C321       C2646   1.476       .  S
C322       C2636   1.474       .  S
O323        V331   1.918       .  S
O323        C333   1.268       .  A
O324        V331   1.906       .  S
O324        C334   1.268       .  A
O325        V331   1.894       .  S
O325        C335   1.261       .  A
O326        V331   1.898       .  S
O326        C336   1.263       .  A
O327        V332   1.917       .  S
O327        C336   1.270       .  A
O328        V332   1.910       .  S
O328        C335   1.268       .  A
O329        V332   1.883       .  S
O329        C334   1.259       .  A
O330        V332   1.882       .  S
O330        C333   1.259       .  A
V331        V332   2.087       .  T
C333       C2759   1.470       .  S
C334       C2626   1.472       .  S
C335       C2649   1.477       .  S
C336       C2979   1.489       .  S
O337        V345   1.901       .  S
O337        C347   1.267       .  A
O338        V345   1.912       .  S
O338        C348   1.267       .  A
O339        V345   1.893       .  S
O339        C349   1.261       .  A
O340        V345   1.902       .  S
O340        C350   1.265       .  A
O341        V346   1.915       .  S
O341        C350   1.270       .  A
O342        V346   1.913       .  S
O342        C349   1.270       .  A
O343        V346   1.881       .  S
O343        C348   1.259       .  A
O344        V346   1.882       .  S
O344        C347   1.259       .  A
V345        V346   2.084       .  T
C347       C2596   1.468       .  S
C348       C2606   1.465       .  S
C349       C2616   1.480       .  S
C350       C2739   1.490       .  S
O351        V359   1.917       .  S
O351        C361   1.269       .  A
O352        V359   1.913       .  S
O352        C362   1.270       .  A
O353        V359   1.880       .  S
O353        C363   1.258       .  A
O354        V359   1.884       .  S
O354        C364   1.260       .  A
O355        V360   1.920   1_545  S
O355        C364   1.271   1_545  A
O356        V360   1.916       .  S
O356        C363   1.269       .  A
O357        V360   1.872       .  S
O357        C362   1.257       .  A
O358        V360   1.877       .  S
O358        C361   1.259       .  A
V359        V360   2.087       .  T
C361       C2586   1.473       .  S
C362       C2569   1.469       .  S
C363       C2609   1.468       .  S
C364       C2576   1.483   1_565  S
O365        V373   1.918       .  S
O365        C375   1.270       .  A
O366        V373   1.910       .  S
O366        C376   1.268       .  A
O367        V373   1.882       .  S
O367        C377   1.259       .  A
O368        V373   1.882       .  S
O368        C378   1.259       .  A
O369        V374   1.922       .  S
O369        C378   1.270       .  A
O370        V374   1.912       .  S
O370        C377   1.269       .  A
O371        V374   1.893       .  S
O371        C376   1.261       .  A
O372        V374   1.895       .  S
O372        C375   1.263       .  A
V373        V374   2.086       .  T
C375       C2669   1.489       .  S
C376       C2556   1.476       .  S
C377       C2536   1.475       .  S
C378       C2549   1.474       .  S
O379        V387   1.914       .  S
O379        C389   1.269   1_565  A
O380        V387   1.905       .  S
O380        C390   1.267       .  A
O381        V387   1.881   1_545  S
O381        C391   1.260       .  A
O382        V387   1.884       .  S
O382        C392   1.260       .  A
O383        V388   1.909       .  S
O383        C392   1.268       .  A
O384        V388   1.918   1_545  S
O384        C391   1.269       .  A
O385        V388   1.892       .  S
O385        C390   1.261       .  A
O386        V388   1.894   1_545  S
O386        C389   1.263       .  A
V387        V388   2.087       .  T
C389       C2526   1.485       .  S
C390       C2589   1.470       .  S
C391       C2559   1.473       .  S
C392       C2516   1.475       .  S
O393        V401   1.909       .  S
O393        C403   1.269       .  A
O394        V401   1.919       .  S
O394        C404   1.270       .  A
O395        V401   1.895       .  S
O395        C405   1.262       .  A
O396        V401   1.905       .  S
O396        C406   1.265       .  A
O397        V402   1.913       .  S
O397        C406   1.269       .  A
O398        V402   1.912       .  S
O398        C405   1.269       .  A
O399        V402   1.880       .  S
O399        C404   1.259       .  A
O400        V402   1.880       .  S
O400        C403   1.259       .  A
V401        V402   2.085       .  T
C403       C2486   1.473       .  S
C404       C2506   1.477       .  S
C405       C2546   1.483       .  S
C406       C2496   1.489       .  S
O407        V415   1.920       .  S
O407        C417   1.271       .  A
O408        V415   1.916       .  S
O408        C418   1.268       .  A
O409        V415   1.872       .  S
O409        C419   1.258       .  A
O410        V415   1.881       .  S
O410        C420   1.259   1_545  A
O411        V416   1.921       .  S
O411        C420   1.270   1_545  A
O412        V416   1.917       .  S
O412        C419   1.270       .  A
O413        V416   1.887       .  S
O413        C418   1.259       .  A
O414        V416   1.891       .  S
O414        C417   1.262       .  A
V415        V416   2.086       .  T
C417       C2476   1.489       .  S
C418       C2509   1.468       .  S
C419       C2466   1.475       .  S
C420       C2619   1.477       .  S
O421        V429   1.921       .  S
O421        C431   1.270   1_554  A
O422        V429   1.911       .  S
O422        C432   1.268       .  A
O423        V429   1.894       .  S
O423        C433   1.260       .  A
O424        V429   1.902       .  S
O424        C434   1.265       .  A
O425        V430   1.899       .  S
O425        C434   1.266       .  A
O426        V430   1.900       .  S
O426        C433   1.265       .  A
O427        V430   1.882       .  S
O427        C432   1.261       .  A
O428        V430   1.882       .  S
O428        C431   1.259   1_554  A
V429        V430   2.085       .  T
C431       C2449   1.470       .  S
C432       C2436   1.476       .  S
C433       C2456   1.461       .  S
C434       C2789   1.478       .  S
O435        V443   1.911       .  S
O435        C445   1.269       .  A
O436        V443   1.914       .  S
O436        C446   1.269       .  A
O437        V443   1.876       .  S
O437        C447   1.258       .  A
O438        V443   1.873       .  S
O438        C448   1.259   1_545  A
O439        V444   1.919   1_565  S
O439        C448   1.270       .  A
O440        V444   1.909       .  S
O440        C447   1.269       .  A
O441        V444   1.890       .  S
O441        C446   1.262       .  A
O442        V444   1.890       .  S
O442        C445   1.261       .  A
V443        V444   2.085       .  T
C445       C2426   1.475       .  S
C446       C2416   1.482       .  S
C447       C2406   1.469       .  S
C448       C2459   1.478       .  S
O449        V457   1.917       .  S
O449        C459   1.269       .  A
O450        V457   1.912       .  S
O450        C460   1.270       .  A
O451        V457   1.888       .  S
O451        C461   1.262       .  A
O452        V457   1.887       .  S
O452        C462   1.260       .  A
O453        V458   1.921       .  S
O453        C462   1.271       .  A
O454        V458   1.927   1_545  S
O454        C461   1.272   1_545  A
O455        V458   1.871       .  S
O455        C460   1.257       .  A
O456        V458   1.880       .  S
O456        C459   1.259       .  A
V457        V458   2.085       .  T
C459       C2396   1.472       .  S
C460       C2386   1.470       .  S
C461       C2499   1.493   1_565  S
C462       C2446   1.480       .  S
O463        V471   1.920       .  S
O463        C473   1.270       .  A
O464        V471   1.911       .  S
O464        C474   1.269       .  A
O465        V471   1.887       .  S
O465        C475   1.259       .  A
O466        V471   1.890       .  S
O466        C476   1.261       .  A
O467        V472   1.915       .  S
O467        C476   1.270       .  A
O468        V472   1.910       .  S
O468        C475   1.268       .  A
O469        V472   1.876       .  S
O469        C474   1.258       .  A
O470        V472   1.877       .  S
O470        C473   1.258       .  A
V471        V472   2.087       .  T
C473       C2429   1.473       .  S
C474       C2366   1.472       .  S
C475       C2379   1.471       .  S
C476       C2579   1.483       .  S
O477        V485   1.913       .  S
O477        C487   1.269       .  A
O478        V485   1.905   1_556  S
O478        C488   1.267       .  A
O479        V485   1.877       .  S
O479        C489   1.259       .  A
O480        V485   1.879   1_556  S
O480        C490   1.259       .  A
O481        V486   1.906   1_556  S
O481        C490   1.268       .  A
O482        V486   1.916       .  S
O482        C489   1.268       .  A
O483        V486   1.889       .  S
O483        C488   1.260   1_554  A
O484        V486   1.892       .  S
O484        C487   1.262       .  A
V485        V486   2.087       .  T
C487       C2846   1.483       .  S
C488       C2356   1.469       .  S
C489       C2376   1.470       .  S
C490       C2349   1.469       .  S
O491        V499   1.910   1_554  S
O491        C501   1.269   1_565  A
O492        V499   1.908       .  S
O492        C502   1.268       .  A
O493        V499   1.880       .  S
O493        C503   1.259       .  A
O494        V499   1.878   1_544  S
O494        C504   1.259   1_554  A
O495        V500   1.913       .  S
O495        C504   1.268       .  A
O496        V500   1.902   1_565  S
O496        C503   1.267       .  A
O497        V500   1.892   1_565  S
O497        C502   1.261       .  A
O498        V500   1.895       .  S
O498        C501   1.262   1_556  A
V499        V500   2.087   1_565  T
C501       C2336   1.483       .  S
C502       C2399   1.476       .  S
C503       C2326   1.469       .  S
C504       C2359   1.469       .  S
O505        V513   1.915       .  S
O505        C515   1.268       .  A
O506        V513   1.908       .  S
O506        C516   1.268       .  A
O507        V513   1.889       .  S
O507        C517   1.261       .  A
O508        V513   1.888       .  S
O508        C518   1.261       .  A
O509        V514   1.912       .  S
O509        C518   1.269       .  A
O510        V514   1.918       .  S
O510        C517   1.270       .  A
O511        V514   1.876       .  S
O511        C516   1.258       .  A
O512        V514   1.878       .  S
O512        C515   1.259       .  A
V513        V514   2.087       .  T
C515       C2309   1.469   1_554  S
C516       C2296   1.470       .  S
C517       C3209   1.485       .  S
C518       C2316   1.480       .  S
O519        V527   1.916   1_545  S
O519        C529   1.270       .  A
O520        V527   1.912       .  S
O520        C530   1.268       .  A
O521        V527   1.875       .  S
O521        C531   1.258       .  A
O522        V527   1.881   1_545  S
O522        C532   1.258       .  A
O523        V528   1.914       .  S
O523        C532   1.267       .  A
O524        V528   1.912   1_565  S
O524        C531   1.269       .  A
O525        V528   1.884   1_565  S
O525        C530   1.260       .  A
O526        V528   1.888       .  S
O526        C529   1.261       .  A
V527        V528   2.087   1_565  T
C529       C2339   1.484       .  S
C530       C2286   1.472       .  S
C531       C2276   1.472       .  S
C532       C2319   1.464       .  S
O533        V541   1.883   1_655  S
O533        C543   1.259       .  A
O534        V541   1.887       .  S
O534        C544   1.260       .  A
O535        V541   1.907       .  S
O535        C545   1.268       .  A
O536        V541   1.909   1_545  S
O536        C546   1.268   1_545  A
O537        V542   1.899       .  S
O537        C546   1.264       .  A
O538        V542   1.895       .  S
O538        C545   1.262       .  A
O539        V542   1.897       .  S
O539        C544   1.266       .  A
O540        V542   1.908   1_655  S
O540        C543   1.266       .  A
V541        V542   2.084       .  T
C543       C2289   1.460       .  S
C544       C2249   1.466       .  S
C545       C2266   1.474       .  S
C546       C2256   1.484   1_565  S
O547        V555   1.920       .  S
O547        C557   1.270       .  A
O548        V555   1.918   1_556  S
O548        C558   1.270       .  A
O549        V555   1.884       .  S
O549        C559   1.260   1_554  A
O550        V555   1.887       .  S
O550        C560   1.261       .  A
O551        V556   1.917       .  S
O551        C560   1.270       .  A
O552        V556   1.914   1_556  S
O552        C559   1.268       .  A
O553        V556   1.871   1_556  S
O553        C558   1.257       .  A
O554        V556   1.879       .  S
O554        C557   1.259       .  A
V555        V556   2.086       .  T
C557       C2269   1.477       .  S
C558       C2226   1.474       .  S
C559       C2236   1.470       .  S
C560       C3099   1.483       .  S
O561        V569   1.908   1_554  S
O561        C571   1.268   1_554  A
O562        V569   1.908       .  S
O562        C572   1.268       .  A
O563        V569   1.882       .  S
O563        C573   1.259   1_545  A
O564        V569   1.883       .  S
O564        C574   1.260       .  A
O565        V570   1.902       .  S
O565        C574   1.267       .  A
O566        V570   1.912       .  S
O566        C573   1.267   1_545  A
O567        V570   1.890       .  S
O567        C572   1.261       .  A
O568        V570   1.897       .  S
O568        C571   1.264       .  A
V569        V570   2.084       .  T
C571       C2419   1.481   1_556  S
C572       C2216   1.473       .  S
C573       C2239   1.465       .  S
C574       C2206   1.470       .  S
O575        V583   1.909       .  S
O575        C585   1.268       .  A
O576        V583   1.905       .  S
O576        C586   1.267       .  A
O577        V583   1.876       .  S
O577        C587   1.259       .  A
O578        V583   1.876   1_455  S
O578        C588   1.258       .  A
O579        V584   1.918   1_455  S
O579        C588   1.269       .  A
O580        V584   1.910       .  S
O580        C587   1.268       .  A
O581        V584   1.892       .  S
O581        C586   1.261       .  A
O582        V584   1.893       .  S
O582        C585   1.262       .  A
V583        V584   2.087       .  T
C585       C2199   1.481       .  S
C586       C2306   1.473       .  S
C587       C2186   1.472       .  S
C588       C2219   1.471       .  S
O589        V597   1.915       .  S
O589        C599   1.268       .  A
O590        V597   1.919       .  S
O590        C600   1.270       .  A
O591        V597   1.872       .  S
O591        C601   1.258       .  A
O592        V597   1.879       .  S
O592        C602   1.260   1_455  A
O593        V598   1.920   1_655  S
O593        C602   1.270       .  A
O594        V598   1.919       .  S
O594        C601   1.270       .  A
O595        V598   1.888       .  S
O595        C600   1.262       .  A
O596        V598   1.886       .  S
O596        C599   1.260       .  A
V597        V598   2.085       .  T
C599       C2176   1.471       .  S
C600       C2259   1.486       .  S
C601       C2156   1.475       .  S
C602       C2169   1.477       .  S
O603        V611   1.917       .  S
O603        C613   1.268       .  A
O604        V611   1.905       .  S
O604        C614   1.268       .  A
O605        V611   1.894       .  S
O605        C615   1.261       .  A
O606        V611   1.897       .  S
O606        C616   1.263       .  A
O607        V612   1.915       .  S
O607        C616   1.270       .  A
O608        V612   1.907       .  S
O608        C615   1.268       .  A
O609        V612   1.885       .  S
O609        C614   1.260       .  A
O610        V612   1.883       .  S
O610        C613   1.259       .  A
V611        V612   2.087       .  T
C613       C2146   1.469   1_545  S
C614       C2136   1.473       .  S
C615       C2166   1.474       .  S
C616       C2479   1.488       .  S
O617        V625   1.917       .  S
O617        C627   1.269       .  A
O618        V625   1.909       .  S
O618        C628   1.268       .  A
O619        V625   1.897       .  S
O619        C629   1.263       .  A
O620        V625   1.892       .  S
O620        C630   1.261       .  A
O621        V626   1.913       .  S
O621        C630   1.269       .  A
O622        V626   1.916       .  S
O622        C629   1.269       .  A
O623        V626   1.875       .  S
O623        C628   1.258       .  A
O624        V626   1.876       .  S
O624        C627   1.259       .  A
V625        V626   2.085       .  T
C627       C2126   1.479       .  S
C628       C2116   1.470       .  S
C629       C2939   1.488       .  S
C630       C2149   1.482       .  S
O631        V639   1.914       .  S
O631        C641   1.268       .  A
O632        V639   1.904       .  S
O632        C642   1.267       .  A
O633        V639   1.894       .  S
O633        C643   1.262       .  A
O634        V639   1.902       .  S
O634        C644   1.265       .  A
O635        V640   1.908       .  S
O635        C644   1.268       .  A
O636        V640   1.908       .  S
O636        C643   1.268       .  A
O637        V640   1.883       .  S
O637        C642   1.260       .  A
O638        V640   1.883       .  S
O638        C641   1.259       .  A
V639        V640   2.084       .  T
C641       C2179   1.468       .  S
C642       C2096   1.472       .  S
C643       C2106   1.477       .  S
C644       C3029   1.485       .  S
O645        V653   1.921       .  S
O645        C655   1.269       .  A
O646        V653   1.911   1_565  S
O646        C656   1.268       .  A
O647        V653   1.896       .  S
O647        C657   1.263       .  A
O648        V653   1.895   1_565  S
O648        C658   1.262       .  A
O649        V654   1.905       .  S
O649        C658   1.267       .  A
O650        V654   1.911   1_545  S
O650        C657   1.268       .  A
O651        V654   1.877       .  S
O651        C656   1.259       .  A
O652        V654   1.878   1_545  S
O652        C655   1.259       .  A
V653        V654   2.087   1_545  T
C655       C2109   1.474       .  S
C656       C2076   1.472       .  S
C657       C2529   1.484       .  S
C658       C2086   1.476       .  S
O659        V667   1.918   1_455  S
O659        C669   1.268       .  A
O660        V667   1.908       .  S
O660        C670   1.268       .  A
O661        V667   1.888       .  S
O661        C671   1.259       .  A
O662        V667   1.889       .  S
O662        C672   1.261       .  A
O663        V668   1.914   1_545  S
O663        C672   1.269   1_545  A
O664        V668   1.908       .  S
O664        C671   1.267       .  A
O665        V668   1.881       .  S
O665        C670   1.259       .  A
O666        V668   1.879   1_455  S
O666        C669   1.259       .  A
V667        V668   2.088       .  T
C669       C2089   1.470       .  S
C670       C2066   1.473       .  S
C671       C2129   1.461       .  S
C672       C2196   1.482   1_565  S
O673        V681   1.924       .  S
O673        C683   1.271       .  A
O674        V681   1.915       .  S
O674        C684   1.270       .  A
O675        V681   1.891       .  S
O675        C685   1.262       .  A
O676        V681   1.886       .  S
O676        C686   1.259       .  A
O677        V682   1.908       .  S
O677        C686   1.268       .  A
O678        V682   1.915       .  S
O678        C685   1.270       .  A
O679        V682   1.877       .  S
O679        C684   1.259       .  A
O680        V682   1.878       .  S
O680        C683   1.259       .  A
V681        V682   2.086       .  T
C683       C2046   1.476       .  S
C684       C2886   1.476       .  S
C685       C2036   1.484       .  S
C686       C2056   1.469       .  S
O687        V695   1.921       .  S
O687        C697   1.270       .  A
O688        V695   1.910       .  S
O688        C698   1.269       .  A
O689        V695   1.892       .  S
O689        C699   1.261       .  A
O690        V695   1.893       .  S
O690        C700   1.263       .  A
O691        V696   1.919       .  S
O691        C700   1.270       .  A
O692        V696   1.913       .  S
O692        C699   1.269       .  A
O693        V696   1.878       .  S
O693        C698   1.259       .  A
O694        V696   1.879       .  S
O694        C697   1.259       .  A
V695        V696   2.086       .  T
C697       C2026   1.475       .  S
C698       C3089   1.472       .  S
C699       C2049   1.478       .  S
C700       C2016   1.488       .  S
O701        V709   1.920       .  S
O701        C711   1.269       .  A
O702        V709   1.912       .  S
O702        C712   1.269       .  A
O703        V709   1.892       .  S
O703        C713   1.262       .  A
O704        V709   1.892       .  S
O704        C714   1.261       .  A
O705        V710   1.909       .  S
O705        C714   1.269       .  A
O706        V710   1.910       .  S
O706        C713   1.268       .  A
O707        V710   1.870       .  S
O707        C712   1.257       .  A
O708        V710   1.871       .  S
O708        C711   1.258       .  A
V709        V710   2.087       .  T
C711       C1996   1.473       .  S
C712       C2599   1.470       .  S
C713       C1986   1.482       .  S
C714       C2006   1.479       .  S
O715        V723   1.916       .  S
O715        C725   1.268       .  A
O716        V723   1.907       .  S
O716        C726   1.267       .  A
O717        V723   1.894       .  S
O717        C727   1.261       .  A
O718        V723   1.892       .  S
O718        C728   1.263       .  A
O719        V724   1.908       .  S
O719        C728   1.268       .  A
O720        V724   1.900       .  S
O720        C727   1.266       .  A
O721        V724   1.875       .  S
O721        C726   1.258       .  A
O722        V724   1.875       .  S
O722        C725   1.259       .  A
V723        V724   2.087       .  T
C725       C2059   1.468       .  S
C726       C2329   1.463       .  S
C727       C1999   1.467       .  S
C728       C1976   1.480   1_556  S
O729        V737   1.884       .  S
O729        C739   1.259       .  A
O730        V737   1.884       .  S
O730        C740   1.260       .  A
O731        V737   1.907       .  S
O731        C741   1.268       .  A
O732        V737   1.915       .  S
O732        C742   1.269       .  A
O733        V738   1.900       .  S
O733        C742   1.264       .  A
O734        V738   1.897       .  S
O734        C741   1.262       .  A
O735        V738   1.906       .  S
O735        C740   1.268       .  A
O736        V738   1.917       .  S
O736        C739   1.268       .  A
V737        V738   2.087       .  T
C739       C1966   1.469       .  S
C740       C3049   1.473       .  S
C741       C2029   1.476       .  S
C742       C1956   1.490       .  S
O743        V751   1.920       .  S
O743        C753   1.270       .  A
O744        V751   1.913       .  S
O744        C754   1.270       .  A
O745        V751   1.877       .  S
O745        C755   1.258       .  A
O746        V751   1.878       .  S
O746        C756   1.258       .  A
O747        V752   1.918       .  S
O747        C756   1.268       .  A
O748        V752   1.912       .  S
O748        C755   1.269       .  A
O749        V752   1.891       .  S
O749        C754   1.261       .  A
O750        V752   1.891       .  S
O750        C753   1.262       .  A
V751        V752   2.087       .  T
C753       C1946   1.488       .  S
C754       C1969   1.482       .  S
C755       C2069   1.473       .  S
C756       C2009   1.467       .  S
O757        V765   1.922       .  S
O757        C767   1.271       .  A
O758        V765   1.919       .  S
O758        C768   1.270       .  A
O759        V765   1.887       .  S
O759        C769   1.260       .  A
O760        V765   1.883       .  S
O760        C770   1.259       .  A
O761        V766   1.905       .  S
O761        C770   1.268       .  A
O762        V766   1.908       .  S
O762        C769   1.266       .  A
O763        V766   1.884       .  S
O763        C768   1.260       .  A
O764        V766   1.891       .  S
O764        C767   1.262       .  A
V765        V766   2.088       .  T
C767       C1916   1.489       .  S
C768       C1936   1.476       .  S
C769       C1926   1.462       .  S
C770       C2079   1.471       .  S
O771        V779   1.917       .  S
O771        C781   1.270       .  A
O772        V779   1.913       .  S
O772        C782   1.269       .  A
O773        V779   1.876       .  S
O773        C783   1.258       .  A
O774        V779   1.878       .  S
O774        C784   1.259       .  A
O775        V780   1.915       .  S
O775        C784   1.269       .  A
O776        V780   1.912       .  S
O776        C783   1.269       .  A
O777        V780   1.886       .  S
O777        C782   1.260       .  A
O778        V780   1.889       .  S
O778        C781   1.261       .  A
V779        V780   2.086       .  T
C781       C1896   1.484       .  S
C782       C1929   1.476       .  S
C783       C2946   1.472       .  S
C784       C1906   1.474       .  S
O785        V793   1.914       .  S
O785        C795   1.268       .  A
O786        V793   1.903       .  S
O786        C796   1.268       .  A
O787        V793   1.893       .  S
O787        C797   1.261       .  A
O788        V793   1.901       .  S
O788        C798   1.265       .  A
O789        V794   1.910       .  S
O789        C798   1.268       .  A
O790        V794   1.908       .  S
O790        C797   1.268       .  A
O791        V794   1.888       .  S
O791        C796   1.261       .  A
O792        V794   1.886       .  S
O792        C795   1.260       .  A
V793        V794   2.084       .  T
C795       C1876   1.469       .  S
C796       C2869   1.474       .  S
C797       C1886   1.475       .  S
C798       C1866   1.486   1_556  S
O799        V807   1.911       .  S
O799        C809   1.268       .  A
O800        V807   1.905       .  S
O800        C810   1.267       .  A
O801        V807   1.876       .  S
O801        C811   1.259       .  A
O802        V807   1.880       .  S
O802        C812   1.259       .  A
O803        V808   1.911       .  S
O803        C812   1.269       .  A
O804        V808   1.920       .  S
O804        C811   1.270       .  A
O805        V808   1.891       .  S
O805        C810   1.260       .  A
O806        V808   1.893       .  S
O806        C809   1.262       .  A
V807        V808   2.087       .  T
C809       C1989   1.481       .  S
C810       C1909   1.468       .  S
C811       C1889   1.473       .  S
C812       C2729   1.475       .  S
O813        V821   1.914       .  S
O813        C823   1.268       .  A
O814        V821   1.904       .  S
O814        C824   1.268       .  A
O815        V821   1.888       .  S
O815        C825   1.260       .  A
O816        V821   1.898       .  S
O816        C826   1.264       .  A
O817        V822   1.914       .  S
O817        C826   1.270       .  A
O818        V822   1.911       .  S
O818        C825   1.269       .  A
O819        V822   1.887       .  S
O819        C824   1.260       .  A
O820        V822   1.886       .  S
O820        C823   1.260       .  A
V821        V822   2.084       .  T
C823       C1939   1.467       .  S
C824       C2229   1.472       .  S
C825       C1856   1.474       .  S
C826       C2019   1.487       .  S
O827        V835   1.922       .  S
O827        C837   1.271       .  A
O828        V835   1.917       .  S
O828        C838   1.269       .  A
O829        V835   1.877       .  S
O829        C839   1.259       .  A
O830        V835   1.872       .  S
O830        C840   1.257       .  A
O831        V836   1.912       .  S
O831        C840   1.269       .  A
O832        V836   1.917       .  S
O832        C839   1.269       .  A
O833        V836   1.887       .  S
O833        C838   1.260       .  A
O834        V836   1.891       .  S
O834        C837   1.262       .  A
V835        V836   2.086       .  T
C837       C1846   1.489       .  S
C838       C1879   1.472       .  S
C839       C1859   1.472       .  S
C840       C2389   1.468       .  S
O841        V849   1.918       .  S
O841        C851   1.269       .  A
O842        V849   1.916       .  S
O842        C852   1.270       .  A
O843        V849   1.887       .  S
O843        C853   1.261       .  A
O844        V849   1.887       .  S
O844        C854   1.260       .  A
O845        V850   1.913       .  S
O845        C854   1.268       .  A
O846        V850   1.917       .  S
O846        C853   1.270       .  A
O847        V850   1.869       .  S
O847        C852   1.257       .  A
O848        V850   1.877       .  S
O848        C851   1.258       .  A
V849        V850   2.086       .  T
C851       C1826   1.468       .  S
C852       C2929   1.470       .  S
C853       C1816   1.483       .  S
C854       C1839   1.468       .  S
O855        V863   1.914       .  S
O855        C865   1.268       .  A
O856        V863   1.904       .  S
O856        C866   1.268       .  A
O857        V863   1.892       .  S
O857        C867   1.261       .  A
O858        V863   1.898       .  S
O858        C868   1.264       .  A
O859        V864   1.912       .  S
O859        C868   1.269       .  A
O860        V864   1.912       .  S
O860        C867   1.269       .  A
O861        V864   1.883       .  S
O861        C866   1.260       .  A
O862        V864   1.882       .  S
O862        C865   1.259       .  A
V863        V864   2.083       .  T
C865       C1836   1.468       .  S
C866       C2709   1.471       .  S
C867       C1806   1.477       .  S
C868       C1796   1.485       .  S
O869        V877   1.912       .  S
O869        C879   1.267       .  A
O870        V877   1.903       .  S
O870        C880   1.267       .  A
O871        V877   1.894       .  S
O871        C881   1.262       .  A
O872        V877   1.901       .  S
O872        C882   1.265       .  A
O873        V878   1.909       .  S
O873        C882   1.267       .  A
O874        V878   1.905       .  S
O874        C881   1.268       .  A
O875        V878   1.886       .  S
O875        C880   1.261       .  A
O876        V878   1.888       .  S
O876        C879   1.261       .  A
V877        V878   2.085       .  T
C879       C1786   1.470       .  S
C880       C3139   1.472       .  S
C881       C1829   1.478       .  S
C882       C1869   1.486       .  S
O883        V891   1.913       .  S
O883        C893   1.269       .  A
O884        V891   1.908       .  S
O884        C894   1.267       .  A
O885        V891   1.881       .  S
O885        C895   1.260       .  A
O886        V891   1.883       .  S
O886        C896   1.260       .  A
O887        V892   1.910       .  S
O887        C896   1.268       .  A
O888        V892   1.919       .  S
O888        C895   1.269       .  A
O889        V892   1.895       .  S
O889        C894   1.262       .  A
O890        V892   1.899       .  S
O890        C893   1.263       .  A
V891        V892   2.086       .  T
C893       C1919   1.487       .  S
C894       C1776   1.474       .  S
C895       C1809   1.475       .  S
C896       C2519   1.475       .  S
O897        V905   1.924       .  S
O897        C907   1.271       .  A
O898        V905   1.914       .  S
O898        C908   1.269       .  A
O899        V905   1.887       .  S
O899        C909   1.260       .  A
O900        V905   1.885       .  S
O900        C910   1.261       .  A
O901        V906   1.914       .  S
O901        C910   1.268       .  A
O902        V906   1.906       .  S
O902        C909   1.268       .  A
O903        V906   1.881       .  S
O903        C908   1.258       .  A
O904        V906   1.881       .  S
O904        C907   1.260       .  A
V905        V906   2.086       .  T
C907       C1756   1.486       .  S
C908       C1766   1.469       .  S
C909       C2439   1.474       .  S
C910       C1779   1.474       .  S
O911        V919   1.921       .  S
O911        C921   1.271       .  A
O912        V919   1.919       .  S
O912        C922   1.269       .  A
O913        V919   1.874       .  S
O913        C923   1.258       .  A
O914        V919   1.867       .  S
O914        C924   1.257       .  A
O915        V920   1.915       .  S
O915        C924   1.269       .  A
O916        V920   1.916       .  S
O916        C923   1.269       .  A
O917        V920   1.884       .  S
O917        C922   1.259       .  A
O918        V920   1.890       .  S
O918        C921   1.262       .  A
V919        V920   2.086       .  T
C921       C1746   1.489       .  S
C922       C1789   1.472       .  S
C923       C1769   1.473       .  S
C924       C2246   1.471       .  S
O925        V933   1.920       .  S
O925        C935   1.271       .  A
O926        V933   1.918       .  S
O926        C936   1.269       .  A
O927        V933   1.875       .  S
O927        C937   1.259       .  A
O928        V933   1.871       .  S
O928        C938   1.257       .  A
O929        V934   1.913       .  S
O929        C938   1.269       .  A
O930        V934   1.915       .  S
O930        C937   1.269       .  A
O931        V934   1.886       .  S
O931        C936   1.260       .  A
O932        V934   1.890       .  S
O932        C935   1.261       .  A
V933        V934   2.086       .  T
C935       C1716   1.486       .  S
C936       C1739   1.475       .  S
C937       C1726   1.474       .  S
C938       C2346   1.470       .  S
O939        V947   1.917       .  S
O939        C949   1.270       .  A
O940        V947   1.911       .  S
O940        C950   1.268       .  A
O941        V947   1.885       .  S
O941        C951   1.260       .  A
O942        V947   1.881       .  S
O942        C952   1.259       .  A
O943        V948   1.910       .  S
O943        C952   1.269       .  A
O944        V948   1.915       .  S
O944        C951   1.268       .  A
O945        V948   1.886       .  S
O945        C950   1.260       .  A
O946        V948   1.889       .  S
O946        C949   1.261       .  A
V947        V948   2.086       .  T
C949       C2039   1.484       .  S
C950       C1706   1.473       .  S
C951       C1696   1.469       .  S
C952       C2639   1.473       .  S
O953        V961   1.908       .  S
O953        C963   1.268       .  A
O954        V961   1.905       .  S
O954        C964   1.267       .  A
O955        V961   1.888       .  S
O955        C965   1.261       .  A
O956        V961   1.883       .  S
O956        C966   1.259       .  A
O957        V962   1.911       .  S
O957        C966   1.267       .  A
O958        V962   1.902       .  S
O958        C965   1.267       .  A
O959        V962   1.888       .  S
O959        C964   1.260       .  A
O960        V962   1.893       .  S
O960        C963   1.263       .  A
V961        V962   2.084       .  T
C963       C1686   1.479       .  S
C964       C1729   1.466       .  S
C965       C2469   1.471       .  S
C966       C1709   1.462       .  S
O967        V975   1.909       .  S
O967        C977   1.268       .  A
O968        V975   1.906       .  S
O968        C978   1.268       .  A
O969        V975   1.885       .  S
O969        C979   1.260       .  A
O970        V975   1.886       .  S
O970        C980   1.260       .  A
O971        V976   1.914       .  S
O971        C980   1.268       .  A
O972        V976   1.902       .  S
O972        C979   1.267       .  A
O973        V976   1.892       .  S
O973        C978   1.261       .  A
O974        V976   1.901       .  S
O974        C977   1.265       .  A
V975        V976   2.084       .  T
C977       C1949   1.485       .  S
C978       C1676   1.475       .  S
C979       C2189   1.470       .  S
C980       C1736   1.469       .  S
O981        V989   1.916       .  S
O981        C991   1.268       .  A
O982        V989   1.909       .  S
O982        C992   1.268       .  A
O983        V989   1.895       .  S
O983        C993   1.262       .  A
O984        V989   1.896       .  S
O984        C994   1.263       .  A
O985        V990   1.916       .  S
O985        C994   1.269       .  A
O986        V990   1.909       .  S
O986        C993   1.269       .  A
O987        V990   1.878       .  S
O987        C992   1.259       .  A
O988        V990   1.878       .  S
O988        C991   1.259       .  A
V989        V990   2.087       .  T
C991       C1666   1.471       .  S
C992       C3019   1.472       .  S
C993       C1699   1.482       .  S
C994       C1656   1.488       .  S
O995       V1003   1.915       .  S
O995       C1005   1.270       .  A
O996       V1003   1.908       .  S
O996       C1006   1.268       .  A
O997       V1003   1.874       .  S
O997       C1007   1.258       .  A
O998       V1003   1.876       .  S
O998       C1008   1.258       .  A
O999       V1004   1.909       .  S
O999       C1008   1.269       .  A
O1000      V1004   1.919       .  S
O1000      C1007   1.269       .  A
O1001      V1004   1.889       .  S
O1001      C1006   1.260       .  A
O1002      V1004   1.892       .  S
O1002      C1005   1.262       .  A
V1003      V1004   2.087       .  T
C1005      C1646   1.484   1_556  S
C1006      C1669   1.472       .  S
C1007      C1679   1.468       .  S
C1008      C3169   1.468       .  S
O1009      V1017   1.918       .  S
O1009      C1019   1.270       .  A
O1010      V1017   1.912       .  S
O1010      C1020   1.269       .  A
O1011      V1017   1.877       .  S
O1011      C1021   1.258       .  A
O1012      V1017   1.877       .  S
O1012      C1022   1.258       .  A
O1013      V1018   1.911       .  S
O1013      C1022   1.269       .  A
O1014      V1018   1.922       .  S
O1014      C1021   1.270       .  A
O1015      V1018   1.893       .  S
O1015      C1020   1.261       .  A
O1016      V1018   1.895       .  S
O1016      C1019   1.263       .  A
V1017      V1018   2.086       .  T
C1019      C1849   1.489       .  S
C1020      C1636   1.475       .  S
C1021      C1629   1.471       .  S
C1022      C2489   1.473       .  S
O1023      V1031   1.914       .  S
O1023      C1033   1.268       .  A
O1024      V1031   1.905       .  S
O1024      C1034   1.267       .  A
O1025      V1031   1.894       .  S
O1025      C1035   1.262       .  A
O1026      V1031   1.901       .  S
O1026      C1036   1.265       .  A
O1027      V1032   1.911       .  S
O1027      C1036   1.268       .  A
O1028      V1032   1.910       .  S
O1028      C1035   1.269       .  A
O1029      V1032   1.882       .  S
O1029      C1034   1.260       .  A
O1030      V1032   1.884       .  S
O1030      C1033   1.259       .  A
V1031      V1032   2.084       .  T
C1033      C1616   1.468       .  S
C1034      C2099   1.471       .  S
C1035      C1626   1.481       .  S
C1036      C1659   1.487       .  S
O1037      V1045   1.924       .  S
O1037      C1047   1.271       .  A
O1038      V1045   1.915       .  S
O1038      C1048   1.269       .  A
O1039      V1045   1.892       .  S
O1039      C1049   1.261       .  A
O1040      V1045   1.896       .  S
O1040      C1050   1.263       .  A
O1041      V1046   1.915       .  S
O1041      C1050   1.270       .  A
O1042      V1046   1.911       .  S
O1042      C1049   1.269       .  A
O1043      V1046   1.874       .  S
O1043      C1048   1.258       .  A
O1044      V1046   1.877       .  S
O1044      C1047   1.259       .  A
V1045      V1046   2.086       .  T
C1047      C1639   1.478       .  S
C1048      C2629   1.473       .  S
C1049      C1606   1.479       .  S
C1050      C1596   1.487       .  S
O1051      V1059   1.919       .  S
O1051      C1061   1.269       .  A
O1052      V1059   1.910       .  S
O1052      C1062   1.269       .  A
O1053      V1059   1.893       .  S
O1053      C1063   1.262       .  A
O1054      V1059   1.892       .  S
O1054      C1064   1.261       .  A
O1055      V1060   1.909       .  S
O1055      C1064   1.269       .  A
O1056      V1060   1.915       .  S
O1056      C1063   1.270       .  A
O1057      V1060   1.878       .  S
O1057      C1062   1.258       .  A
O1058      V1060   1.880       .  S
O1058      C1061   1.259       .  A
V1059      V1060   2.087       .  T
C1061      C1609   1.470       .  S
C1062      C2839   1.472       .  S
C1063      C1719   1.486       .  S
C1064      C1586   1.478       .  S
O1065      V1073   1.913       .  S
O1065      C1075   1.269       .  A
O1066      V1073   1.907       .  S
O1066      C1076   1.268       .  A
O1067      V1073   1.879       .  S
O1067      C1077   1.259       .  A
O1068      V1073   1.878       .  S
O1068      C1078   1.258       .  A
O1069      V1074   1.918       .  S
O1069      C1078   1.269       .  A
O1070      V1074   1.909       .  S
O1070      C1077   1.268       .  A
O1071      V1074   1.890       .  S
O1071      C1076   1.260       .  A
O1072      V1074   1.892       .  S
O1072      C1075   1.262       .  A
V1073      V1074   2.087       .  T
C1075      C1899   1.484       .  S
C1076      C1576   1.473       .  S
C1077      C3229   1.473       .  S
C1078      C1589   1.468       .  S
O1079      V1087   1.916       .  S
O1079      C1089   1.269       .  A
O1080      V1087   1.913       .  S
O1080      C1090   1.269       .  A
O1081      V1087   1.889       .  S
O1081      C1091   1.262       .  A
O1082      V1087   1.887       .  S
O1082      C1092   1.260       .  A
O1083      V1088   1.915       .  S
O1083      C1092   1.269       .  A
O1084      V1088   1.919       .  S
O1084      C1091   1.271       .  A
O1085      V1088   1.871       .  S
O1085      C1090   1.257       .  A
O1086      V1088   1.878       .  S
O1086      C1089   1.259       .  A
V1087      V1088   2.086       .  T
C1089      C1579   1.472       .  S
C1090      C2209   1.470       .  S
C1091      C1566   1.487   1_556  S
C1092      C1619   1.473       .  S
O1093      V1101   1.913       .  S
O1093      C1103   1.269       .  A
O1094      V1101   1.908       .  S
O1094      C1104   1.268       .  A
O1095      V1101   1.876       .  S
O1095      C1105   1.258       .  A
O1096      V1101   1.875       .  S
O1096      C1106   1.258       .  A
O1097      V1102   1.911       .  S
O1097      C1106   1.269       .  A
O1098      V1102   1.920       .  S
O1098      C1105   1.269       .  A
O1099      V1102   1.893       .  S
O1099      C1104   1.262       .  A
O1100      V1102   1.896       .  S
O1100      C1103   1.263       .  A
V1101      V1102   2.087       .  T
C1103      C1569   1.486       .  S
C1104      C1556   1.480       .  S
C1105      C1546   1.471       .  S
C1106      C2409   1.472       .  S
O1107      V1115   1.916       .  S
O1107      C1117   1.268       .  A
O1108      V1115   1.906       .  S
O1108      C1118   1.267       .  A
O1109      V1115   1.893       .  S
O1109      C1119   1.261       .  A
O1110      V1115   1.894       .  S
O1110      C1120   1.263       .  A
O1111      V1116   1.915       .  S
O1111      C1120   1.269       .  A
O1112      V1116   1.907       .  S
O1112      C1119   1.268       .  A
O1113      V1116   1.873       .  S
O1113      C1118   1.257       .  A
O1114      V1116   1.873       .  S
O1114      C1117   1.258       .  A
V1115      V1116   2.087       .  T
C1117      C1536   1.469       .  S
C1118      C2809   1.461       .  S
C1119      C1549   1.476       .  S
C1120      C1799   1.485       .  S
O1121      V1129   1.912       .  S
O1121      C1131   1.269       .  A
O1122      V1129   1.910       .  S
O1122      C1132   1.269       .  A
O1123      V1129   1.888       .  S
O1123      C1133   1.260       .  A
O1124      V1129   1.890       .  S
O1124      C1134   1.261       .  A
O1125      V1130   1.901       .  S
O1125      C1134   1.267       .  A
O1126      V1130   1.911       .  S
O1126      C1133   1.267       .  A
O1127      V1130   1.893       .  S
O1127      C1132   1.261       .  A
O1128      V1130   1.901       .  S
O1128      C1131   1.264       .  A
V1129      V1130   2.084       .  T
C1131      C1749   1.487       .  S
C1132      C1526   1.477       .  S
C1133      C1516   1.466       .  S
C1134      C2159   1.472       .  S
O1135      V1143   1.918       .  S
O1135      C1145   1.270       .  A
O1136      V1143   1.913       .  S
O1136      C1146   1.268       .  A
O1137      V1143   1.880       .  S
O1137      C1147   1.259       .  A
O1138      V1143   1.882       .  S
O1138      C1148   1.259       .  A
O1139      V1144   1.916       .  S
O1139      C1148   1.268       .  A
O1140      V1144   1.913       .  S
O1140      C1147   1.269       .  A
O1141      V1144   1.890       .  S
O1141      C1146   1.261       .  A
O1142      V1144   1.892       .  S
O1142      C1145   1.262       .  A
V1143      V1144   2.085       .  T
C1145      C1506   1.487       .  S
C1146      C1519   1.476       .  S
C1147      C2539   1.476       .  S
C1148      C1559   1.468       .  S
O1149      V1157   1.907       .  S
O1149      C1159   1.268       .  A
O1150      V1157   1.906       .  S
O1150      C1160   1.268       .  A
O1151      V1157   1.883       .  S
O1151      C1161   1.260       .  A
O1152      V1157   1.885       .  S
O1152      C1162   1.260       .  A
O1153      V1158   1.902       .  S
O1153      C1162   1.268       .  A
O1154      V1158   1.913       .  S
O1154      C1161   1.268       .  A
O1155      V1158   1.887       .  S
O1155      C1160   1.260       .  A
O1156      V1158   1.896       .  S
O1156      C1159   1.263       .  A
V1157      V1158   2.083       .  T
C1159      C1486   1.480       .  S
C1160      C1539   1.468       .  S
C1161      C1496   1.467       .  S
C1162      C3199   1.471       .  S
O1163      V1171   1.924       .  S
O1163      C1173   1.272       .  A
O1164      V1171   1.918       .  S
O1164      C1174   1.269       .  A
O1165      V1171   1.876       .  S
O1165      C1175   1.258       .  A
O1166      V1171   1.881       .  S
O1166      C1176   1.260       .  A
O1167      V1172   1.918       .  S
O1167      C1176   1.269       .  A
O1168      V1172   1.915       .  S
O1168      C1175   1.270       .  A
O1169      V1172   1.882       .  S
O1169      C1174   1.259       .  A
O1170      V1172   1.887       .  S
O1170      C1173   1.261       .  A
V1171      V1172   2.085       .  T
C1173      C1599   1.488       .  S
C1174      C1499   1.473       .  S
C1175      C2969   1.473       .  S
C1176      C1529   1.476       .  S
O1177      V1185   1.916       .  S
O1177      C1187   1.270       .  A
O1178      V1185   1.910       .  S
O1178      C1188   1.269       .  A
O1179      V1185   1.878       .  S
O1179      C1189   1.259       .  A
O1180      V1185   1.876       .  S
O1180      C1190   1.258       .  A
O1181      V1186   1.907       .  S
O1181      C1190   1.268       .  A
O1182      V1186   1.917       .  S
O1182      C1189   1.268       .  A
O1183      V1186   1.888       .  S
O1183      C1188   1.260       .  A
O1184      V1186   1.890       .  S
O1184      C1187   1.262       .  A
V1185      V1186   2.087       .  T
C1187      C1649   1.484       .  S
C1188      C1476   1.476       .  S
C1189      C1466   1.471       .  S
C1190      C2769   1.469       .  S
O1191      V1199   1.918       .  S
O1191      C1201   1.269       .  A
O1192      V1199   1.909       .  S
O1192      C1202   1.268       .  A
O1193      V1199   1.894       .  S
O1193      C1203   1.262       .  A
O1194      V1199   1.896       .  S
O1194      C1204   1.263       .  A
O1195      V1200   1.913       .  S
O1195      C1204   1.269       .  A
O1196      V1200   1.908       .  S
O1196      C1203   1.268       .  A
O1197      V1200   1.873       .  S
O1197      C1202   1.258       .  A
O1198      V1200   1.876       .  S
O1198      C1201   1.258       .  A
V1199      V1200   2.087       .  T
C1201      C1479   1.467       .  S
C1202      C2659   1.470       .  S
C1203      C1456   1.478       .  S
C1204      C1509   1.486       .  S
O1205      V1213   1.916       .  S
O1205      C1215   1.268       .  A
O1206      V1213   1.908       .  S
O1206      C1216   1.268       .  A
O1207      V1213   1.889       .  S
O1207      C1217   1.260       .  A
O1208      V1213   1.890       .  S
O1208      C1218   1.262       .  A
O1209      V1214   1.916       .  S
O1209      C1218   1.270       .  A
O1210      V1214   1.909       .  S
O1210      C1217   1.268       .  A
O1211      V1214   1.879       .  S
O1211      C1216   1.259       .  A
O1212      V1214   1.877       .  S
O1212      C1215   1.259       .  A
V1213      V1214   2.087       .  T
C1215      C1446   1.468       .  S
C1216      C2369   1.471       .  S
C1217      C1469   1.472       .  S
C1218      C1436   1.485       .  S
O1219      V1227   1.917       .  S
O1219      C1229   1.269       .  A
O1220      V1227   1.909       .  S
O1220      C1230   1.268       .  A
O1221      V1227   1.889       .  S
O1221      C1231   1.262       .  A
O1222      V1227   1.889       .  S
O1222      C1232   1.260       .  A
O1223      V1228   1.908       .  S
O1223      C1232   1.268       .  A
O1224      V1228   1.914       .  S
O1224      C1231   1.269       .  A
O1225      V1228   1.875       .  S
O1225      C1230   1.258       .  A
O1226      V1228   1.875       .  S
O1226      C1229   1.258       .  A
V1227      V1228   2.087       .  T
C1229      C1426   1.469       .  S
C1230      C2299   1.470       .  S
C1231      C1489   1.482       .  S
C1232      C1449   1.473       .  S
O1233      V1241   1.906       .  S
O1233      C1243   1.267       .  A
O1234      V1241   1.905       .  S
O1234      C1244   1.267       .  A
O1235      V1241   1.877       .  S
O1235      C1245   1.259       .  A
O1236      V1241   1.876       .  S
O1236      C1246   1.259       .  A
O1237      V1242   1.921       .  S
O1237      C1246   1.270       .  A
O1238      V1242   1.912       .  S
O1238      C1245   1.269       .  A
O1239      V1242   1.891       .  S
O1239      C1244   1.261       .  A
O1240      V1242   1.894       .  S
O1240      C1243   1.263       .  A
V1241      V1242   2.085       .  T
C1243      C1689   1.479       .  S
C1244      C1429   1.471       .  S
C1245      C2139   1.474       .  S
C1246      C1416   1.481       .  S
O1247      V1255   1.913       .  S
O1247      C1257   1.269       .  A
O1248      V1255   1.909       .  S
O1248      C1258   1.267       .  A
O1249      V1255   1.877       .  S
O1249      C1259   1.258       .  A
O1250      V1255   1.876       .  S
O1250      C1260   1.259       .  A
O1251      V1256   1.913       .  S
O1251      C1260   1.269       .  A
O1252      V1256   1.921       .  S
O1252      C1259   1.269       .  A
O1253      V1256   1.890       .  S
O1253      C1258   1.259       .  A
O1254      V1256   1.892       .  S
O1254      C1257   1.262       .  A
V1255      V1256   2.088       .  T
C1257      C1406   1.483       .  S
C1258      C1419   1.464       .  S
C1259      C1459   1.470       .  S
C1260      C2999   1.474       .  S
O1261      V1269   1.913       .  S
O1261      C1271   1.267       .  A
O1262      V1269   1.904       .  S
O1262      C1272   1.267       .  A
O1263      V1269   1.894       .  S
O1263      C1273   1.261       .  A
O1264      V1269   1.897       .  S
O1264      C1274   1.264       .  A
O1265      V1270   1.903       .  S
O1265      C1274   1.267       .  A
O1266      V1270   1.902       .  S
O1266      C1273   1.267       .  A
O1267      V1270   1.884       .  S
O1267      C1272   1.260       .  A
O1268      V1270   1.880       .  S
O1268      C1271   1.258       .  A
V1269      V1270   2.086       .  T
C1271      C1386   1.461       .  S
C1272      C2279   1.471       .  S
C1273      C1396   1.469       .  S
C1274      C1979   1.479       .  S
O1275      V1283   1.919       .  S
O1275      C1285   1.269       .  A
O1276      V1283   1.909       .  S
O1276      C1286   1.268       .  A
O1277      V1283   1.891       .  S
O1277      C1287   1.261       .  A
O1278      V1283   1.894       .  S
O1278      C1288   1.262       .  A
O1279      V1284   1.912       .  S
O1279      C1288   1.269       .  A
O1280      V1284   1.906       .  S
O1280      C1287   1.268       .  A
O1281      V1284   1.876       .  S
O1281      C1286   1.258       .  A
O1282      V1284   1.877       .  S
O1282      C1285   1.259       .  A
V1283      V1284   2.087       .  T
C1285      C1366   1.473       .  S
C1286      C2566   1.470       .  S
C1287      C1376   1.477       .  S
C1288      C1439   1.483       .  S
O1289      V1297   1.918       .  S
O1289      C1299   1.269       .  A
O1290      V1297   1.907       .  S
O1290      C1300   1.268       .  A
O1291      V1297   1.895       .  S
O1291      C1301   1.262       .  A
O1292      V1297   1.893       .  S
O1292      C1302   1.261       .  A
O1293      V1298   1.907       .  S
O1293      C1302   1.268       .  A
O1294      V1298   1.910       .  S
O1294      C1301   1.269       .  A
O1295      V1298   1.877       .  S
O1295      C1300   1.258       .  A
O1296      V1298   1.874       .  S
O1296      C1299   1.259       .  A
V1297      V1298   2.087       .  T
C1299      C1399   1.472       .  S
C1300      C2119   1.469       .  S
C1301      C1819   1.482       .  S
C1302      C1369   1.473       .  S
O1303      V1311   1.913       .  S
O1303      C1313   1.269       .  A
O1304      V1311   1.907       .  S
O1304      C1314   1.268       .  A
O1305      V1311   1.882       .  S
O1305      C1315   1.260       .  A
O1306      V1311   1.878       .  S
O1306      C1316   1.259       .  A
O1307      V1312   1.911       .  S
O1307      C1316   1.269       .  A
O1308      V1312   1.917       .  S
O1308      C1315   1.269       .  A
O1309      V1312   1.891       .  S
O1309      C1314   1.262       .  A
O1310      V1312   1.891       .  S
O1310      C1313   1.262       .  A
V1311      V1312   2.085       .  T
C1313      C1409   1.483       .  S
C1314      C1389   1.476       .  S
C1315      C1356   1.472       .  S
C1316      C3109   1.472       .  S
O1317      V1325   1.913       .  S
O1317      C1327   1.269       .  A
O1318      V1325   1.916       .  S
O1318      C1328   1.268       .  A
O1319      V1325   1.893       .  S
O1319      C1329   1.262       .  A
O1320      V1325   1.894       .  S
O1320      C1330   1.263       .  A
O1321      V1326   1.922       .  S
O1321      C1330   1.271       .  A
O1322      V1326   1.917       .  S
O1322      C1329   1.269       .  A
O1323      V1326   1.878       .  S
O1323      C1328   1.258       .  A
O1324      V1326   1.874       .  S
O1324      C1327   1.258       .  A
V1325      V1326   2.085       .  T
C1327      C2689   1.471       .  S
C1328      C1379   1.465       .  S
C1329      C1346   1.482       .  S
C1330      C1959   1.490       .  S
O1331      V1339   1.917       .  S
O1331      C1341   1.268       .  A
O1332      V1339   1.906       .  S
O1332      C1342   1.267       .  A
O1333      V1339   1.894       .  S
O1333      C1343   1.262       .  A
O1334      V1339   1.902       .  S
O1334      C1344   1.264       .  A
O1335      V1340   1.904       .  S
O1335      C1344   1.267       .  A
O1336      V1340   1.906       .  S
O1336      C1343   1.267       .  A
O1337      V1340   1.885       .  S
O1337      C1342   1.261       .  A
O1338      V1340   1.889       .  S
O1338      C1341   1.260       .  A
V1339      V1340   2.086       .  T
C1341      C1349   1.471       .  S
C1342      C2779   1.474       .  S
C1343      C1359   1.477       .  S
C1344      C1759   1.482       .  S
C1345      C1346   1.408       .  A
C1345      C1350   1.400       .  A
C1345      H1351   1.083       .  S
C1346      C1347   1.405       .  A
C1347      C1348   1.402       .  A
C1347      H1352   1.083       .  S
C1348      C1349   1.404       .  A
C1348      H1353   1.084       .  S
C1349      C1350   1.401       .  A
C1350      H1354   1.083       .  S
C1355      C1356   1.401       .  A
C1355      C1360   1.402       .  A
C1355      H1361   1.083       .  S
C1356      C1357   1.405       .  A
C1357      C1358   1.395       .  A
C1357      H1362   1.084       .  S
C1358      C1359   1.401       .  A
C1358      H1363   1.083       .  S
C1359      C1360   1.409       .  A
C1360      H1364   1.083       .  S
C1365      C1366   1.401       .  A
C1365      C1370   1.404       .  A
C1365      H1371   1.083       .  S
C1366      C1367   1.406       .  A
C1367      C1368   1.393       .  A
C1367      H1372   1.084       .  S
C1368      C1369   1.399       .  A
C1368      H1373   1.083       .  S
C1369      C1370   1.409       .  A
C1370      H1374   1.083       .  S
C1375      C1376   1.411       .  A
C1375      C1380   1.402       .  A
C1375      H1381   1.083       .  S
C1376      C1377   1.401       .  A
C1377      C1378   1.393       .  A
C1377      H1382   1.083       .  S
C1378      C1379   1.403       .  A
C1378      H1383   1.084       .  S
C1379      C1380   1.399       .  A
C1380      H1384   1.083       .  S
C1385      C1386   1.402       .  A
C1385      C1390   1.397       .  A
C1385      H1391   1.084       .  S
C1386      C1387   1.399       .  A
C1387      C1388   1.398       .  A
C1387      H1392   1.083       .  S
C1388      C1389   1.407       .  A
C1388      H1393   1.083       .  S
C1389      C1390   1.404       .  A
C1390      H1394   1.083       .  S
C1395      C1396   1.398       .  A
C1395      C1400   1.390       .  A
C1395      H1401   1.084       .  S
C1396      C1397   1.408       .  A
C1397      C1398   1.403       .  A
C1397      H1402   1.083       .  S
C1398      C1399   1.402       .  A
C1398      H1403   1.083       .  S
C1399      C1400   1.406       .  A
C1400      H1404   1.084       .  S
C1405      C1406   1.409       .  A
C1405      C1410   1.400       .  A
C1405      H1411   1.083       .  S
C1406      C1407   1.403       .  A
C1407      C1408   1.400       .  A
C1407      H1412   1.083       .  S
C1408      C1409   1.409       .  A
C1408      H1413   1.083       .  S
C1409      C1410   1.403       .  A
C1410      H1414   1.083       .  S
C1415      C1416   1.409       .  A
C1415      C1420   1.391       .  A
C1415      H1421   1.083       .  S
C1416      C1417   1.406       .  A
C1417      C1418   1.405       .  A
C1417      H1422   1.083       .  S
C1418      C1419   1.404       .  A
C1418      H1423   1.083       .  S
C1419      C1420   1.395       .  A
C1420      H1424   1.084       .  S
C1425      C1426   1.406       .  A
C1425      C1430   1.391       .  A
C1425      H1431   1.084       .  S
C1426      C1427   1.401       .  A
C1427      C1428   1.402       .  A
C1427      H1432   1.083       .  S
C1428      C1429   1.409       .  A
C1428      H1433   1.083       .  S
C1429      C1430   1.398       .  A
C1430      H1434   1.083       .  S
C1435      C1436   1.409       .  A
C1435      C1440   1.399   1_545  A
C1435      H1441   1.083       .  S
C1436      C1437   1.403       .  A
C1437      C1438   1.402       .  A
C1437      H1442   1.083       .  S
C1438      C1439   1.409   1_545  A
C1438      H1443   1.083       .  S
C1439      C1440   1.402       .  A
C1440      H1444   1.083       .  S
C1445      C1446   1.400       .  A
C1445      C1450   1.402       .  A
C1445      H1451   1.083       .  S
C1446      C1447   1.406       .  A
C1447      C1448   1.393       .  A
C1447      H1452   1.084       .  S
C1448      C1449   1.399       .  A
C1448      H1453   1.083       .  S
C1449      C1450   1.410       .  A
C1450      H1454   1.083       .  S
C1455      C1456   1.400       .  A
C1455      C1460   1.393       .  A
C1455      H1461   1.083       .  S
C1456      C1457   1.411       .  A
C1457      C1458   1.404       .  A
C1457      H1462   1.083       .  S
C1458      C1459   1.400       .  A
C1458      H1463   1.083       .  S
C1459      C1460   1.405       .  A
C1460      H1464   1.084       .  S
C1465      C1466   1.401       .  A
C1465      C1470   1.403       .  A
C1465      H1471   1.083       .  S
C1466      C1467   1.406       .  A
C1467      C1468   1.393       .  A
C1467      H1472   1.084       .  S
C1468      C1469   1.399       .  A
C1468      H1473   1.084       .  S
C1469      C1470   1.409       .  A
C1470      H1474   1.083       .  S
C1475      C1476   1.411       .  A
C1475      C1480   1.402       .  A
C1475      H1481   1.083       .  S
C1476      C1477   1.400       .  A
C1477      C1478   1.394       .  A
C1477      H1482   1.083       .  S
C1478      C1479   1.405       .  A
C1478      H1483   1.084       .  S
C1479      C1480   1.399       .  A
C1480      H1484   1.083       .  S
C1485      C1486   1.408       .  A
C1485      C1490   1.401   1_455  A
C1485      H1491   1.083       .  S
C1486      C1487   1.402       .  A
C1487      C1488   1.398       .  A
C1487      H1492   1.083       .  S
C1488      C1489   1.408   1_455  A
C1488      H1493   1.083       .  S
C1489      C1490   1.403       .  A
C1490      H1494   1.083       .  S
C1495      C1496   1.400       .  A
C1495      C1500   1.394       .  A
C1495      H1501   1.084       .  S
C1496      C1497   1.405       .  A
C1497      C1498   1.403       .  A
C1497      H1502   1.083       .  S
C1498      C1499   1.403       .  A
C1498      H1503   1.083       .  S
C1499      C1500   1.405       .  A
C1500      H1504   1.084       .  S
C1505      C1506   1.409       .  A
C1505      C1510   1.400       .  A
C1505      H1511   1.083       .  S
C1506      C1507   1.403       .  A
C1507      C1508   1.402       .  A
C1507      H1512   1.083       .  S
C1508      C1509   1.410       .  A
C1508      H1513   1.083       .  S
C1509      C1510   1.403       .  A
C1510      H1514   1.083       .  S
C1515      C1516   1.400       .  A
C1515      C1520   1.398       .  A
C1515      H1521   1.083       .  S
C1516      C1517   1.404       .  A
C1517      C1518   1.400       .  A
C1517      H1522   1.084       .  S
C1518      C1519   1.403       .  A
C1518      H1523   1.083       .  S
C1519      C1520   1.407       .  A
C1520      H1524   1.083       .  S
C1525      C1526   1.410       .  A
C1525      C1530   1.403       .  A
C1525      H1531   1.083       .  S
C1526      C1527   1.400       .  A
C1527      C1528   1.395       .  A
C1527      H1532   1.083       .  S
C1528      C1529   1.407       .  A
C1528      H1533   1.083       .  S
C1529      C1530   1.401       .  A
C1530      H1534   1.083       .  S
C1535      C1536   1.406       .  A
C1535      C1540   1.391       .  A
C1535      H1541   1.084       .  S
C1536      C1537   1.400       .  A
C1537      C1538   1.401       .  A
C1537      H1542   1.083       .  S
C1538      C1539   1.409       .  A
C1538      H1543   1.083       .  S
C1539      C1540   1.397       .  A
C1540      H1544   1.083       .  S
C1545      C1546   1.405       .  A
C1545      C1550   1.393       .  A
C1545      H1551   1.084       .  S
C1546      C1547   1.400       .  A
C1547      C1548   1.404       .  A
C1547      H1552   1.083       .  S
C1548      C1549   1.410       .  A
C1548      H1553   1.083       .  S
C1549      C1550   1.399       .  A
C1550      H1554   1.083       .  S
C1555      C1556   1.411       .  A
C1555      C1560   1.403       .  A
C1555      H1561   1.083       .  S
C1556      C1557   1.402       .  A
C1557      C1558   1.395       .  A
C1557      H1562   1.083       .  S
C1558      C1559   1.404       .  A
C1558      H1563   1.084       .  S
C1559      C1560   1.400       .  A
C1560      H1564   1.083       .  S
C1565      C1566   1.404       .  A
C1565      C1570   1.403       .  A
C1565      H1571   1.083   1_554  S
C1566      C1567   1.410       .  A
C1567      C1568   1.399       .  A
C1567      H1572   1.083       .  S
C1568      C1569   1.402       .  A
C1568      H1573   1.083       .  S
C1569      C1570   1.410       .  A
C1570      H1574   1.083       .  S
C1575      C1576   1.409       .  A
C1575      C1580   1.402       .  A
C1575      H1581   1.083       .  S
C1576      C1577   1.399       .  A
C1577      C1578   1.393       .  A
C1577      H1582   1.083       .  S
C1578      C1579   1.407       .  A
C1578      H1583   1.084       .  S
C1579      C1580   1.401       .  A
C1580      H1584   1.083       .  S
C1585      C1586   1.411       .  A
C1585      C1590   1.403       .  A
C1585      H1591   1.083       .  S
C1586      C1587   1.401       .  A
C1587      C1588   1.394       .  A
C1587      H1592   1.083       .  S
C1588      C1589   1.405       .  A
C1588      H1593   1.084       .  S
C1589      C1590   1.399       .  A
C1590      H1594   1.083       .  S
C1595      C1596   1.411       .  A
C1595      C1600   1.404       .  A
C1595      H1601   1.083       .  S
C1596      C1597   1.402       .  A
C1597      C1598   1.400       .  A
C1597      H1602   1.083       .  S
C1598      C1599   1.410       .  A
C1598      H1603   1.083       .  S
C1599      C1600   1.403       .  A
C1600      H1604   1.083       .  S
C1605      C1606   1.401       .  A
C1605      C1610   1.395       .  A
C1605      H1611   1.083       .  S
C1606      C1607   1.411       .  A
C1607      C1608   1.403       .  A
C1607      H1612   1.083       .  S
C1608      C1609   1.400       .  A
C1608      H1613   1.083       .  S
C1609      C1610   1.405       .  A
C1610      H1614   1.084       .  S
C1615      C1616   1.401       .  A
C1615      C1620   1.396       .  A
C1615      H1621   1.084       .  S
C1616      C1617   1.405       .  A
C1617      C1618   1.402       .  A
C1617      H1622   1.083       .  S
C1618      C1619   1.403       .  A
C1618      H1623   1.083       .  S
C1619      C1620   1.405       .  A
C1620      H1624   1.083       .  S
C1625      C1626   1.412       .  A
C1625      C1630   1.404       .  A
C1625      H1631   1.083       .  S
C1626      C1627   1.401       .  A
C1627      C1628   1.394       .  A
C1627      H1632   1.083       .  S
C1628      C1629   1.405       .  A
C1628      H1633   1.084       .  S
C1629      C1630   1.400       .  A
C1630      H1634   1.083       .  S
C1635      C1636   1.398       .  A
C1635      C1640   1.394       .  A
C1635      H1641   1.084       .  S
C1636      C1637   1.410       .  A
C1637      C1638   1.405       .  A
C1637      H1642   1.083       .  S
C1638      C1639   1.402       .  A
C1638      H1643   1.083       .  S
C1639      C1640   1.408       .  A
C1640      H1644   1.084       .  S
C1645      C1646   1.410       .  A
C1645      C1650   1.402       .  A
C1645      H1651   1.083       .  S
C1646      C1647   1.402       .  A
C1647      C1648   1.400       .  A
C1647      H1652   1.083   1_554  S
C1648      C1649   1.410       .  A
C1648      H1653   1.083       .  S
C1649      C1650   1.403       .  A
C1650      H1654   1.083       .  S
C1655      C1656   1.404       .  A
C1655      C1660   1.403   1_655  A
C1655      H1661   1.083       .  S
C1656      C1657   1.409   1_655  A
C1657      C1658   1.401       .  A
C1657      H1662   1.083       .  S
C1658      C1659   1.404       .  A
C1658      H1663   1.083       .  S
C1659      C1660   1.409       .  A
C1660      H1664   1.083       .  S
C1665      C1666   1.401       .  A
C1665      C1670   1.402       .  A
C1665      H1671   1.083       .  S
C1666      C1667   1.406       .  A
C1667      C1668   1.393       .  A
C1667      H1672   1.084       .  S
C1668      C1669   1.399       .  A
C1668      H1673   1.083       .  S
C1669      C1670   1.409       .  A
C1670      H1674   1.083       .  S
C1675      C1676   1.411       .  A
C1675      C1680   1.403       .  A
C1675      H1681   1.083       .  S
C1676      C1677   1.399       .  A
C1677      C1678   1.392       .  A
C1677      H1682   1.083       .  S
C1678      C1679   1.405       .  A
C1678      H1683   1.084       .  S
C1679      C1680   1.400       .  A
C1680      H1684   1.083       .  S
C1685      C1686   1.403       .  A
C1685      C1690   1.399       .  A
C1685      H1691   1.083       .  S
C1686      C1687   1.407       .  A
C1687      C1688   1.398       .  A
C1687      H1692   1.083       .  S
C1688      C1689   1.403       .  A
C1688      H1693   1.083       .  S
C1689      C1690   1.407       .  A
C1690      H1694   1.083       .  S
C1695      C1696   1.403       .  A
C1695      C1700   1.395       .  A
C1695      H1701   1.084       .  S
C1696      C1697   1.400       .  A
C1697      C1698   1.403       .  A
C1697      H1702   1.083       .  S
C1698      C1699   1.411       .  A
C1698      H1703   1.083       .  S
C1699      C1700   1.402       .  A
C1700      H1704   1.083       .  S
C1705      C1706   1.406       .  A
C1705      C1710   1.395       .  A
C1705      H1711   1.083       .  S
C1706      C1707   1.403       .  A
C1707      C1708   1.400       .  A
C1707      H1712   1.083       .  S
C1708      C1709   1.403       .  A
C1708      H1713   1.084       .  S
C1709      C1710   1.399       .  A
C1710      H1714   1.084       .  S
C1715      C1716   1.403       .  A
C1715      C1720   1.402       .  A
C1715      H1721   1.083       .  S
C1716      C1717   1.410       .  A
C1717      C1718   1.401       .  A
C1717      H1722   1.083       .  S
C1718      C1719   1.403       .  A
C1718      H1723   1.083       .  S
C1719      C1720   1.410       .  A
C1720      H1724   1.083       .  S
C1725      C1726   1.403       .  A
C1725      C1730   1.401       .  A
C1725      H1731   1.083       .  S
C1726      C1727   1.408       .  A
C1727      C1728   1.391       .  A
C1727      H1732   1.083       .  S
C1728      C1729   1.397       .  A
C1728      H1733   1.084       .  S
C1729      C1730   1.407       .  A
C1730      H1734   1.083       .  S
C1735      C1736   1.405       .  A
C1735      C1740   1.403       .  A
C1735      H1741   1.083       .  S
C1736      C1737   1.400       .  A
C1737      C1738   1.396       .  A
C1737      H1742   1.083       .  S
C1738      C1739   1.405       .  A
C1738      H1743   1.083       .  S
C1739      C1740   1.404       .  A
C1740      H1744   1.083       .  S
C1745      C1746   1.405       .  A
C1745      C1750   1.405   1_565  A
C1745      H1751   1.083       .  S
C1746      C1747   1.410   1_565  A
C1747      C1748   1.399       .  A
C1747      H1752   1.083       .  S
C1748      C1749   1.402       .  A
C1748      H1753   1.083       .  S
C1749      C1750   1.410       .  A
C1750      H1754   1.083       .  S
C1755      C1756   1.409       .  A
C1755      C1760   1.395       .  A
C1755      H1761   1.083       .  S
C1756      C1757   1.405       .  A
C1757      C1758   1.406       .  A
C1757      H1762   1.083       .  S
C1758      C1759   1.410       .  A
C1758      H1763   1.083       .  S
C1759      C1760   1.401       .  A
C1760      H1764   1.083       .  S
C1765      C1766   1.409       .  A
C1765      C1770   1.400       .  A
C1765      H1771   1.083       .  S
C1766      C1767   1.397       .  A
C1767      C1768   1.394       .  A
C1767      H1772   1.084       .  S
C1768      C1769   1.409       .  A
C1768      H1773   1.083       .  S
C1769      C1770   1.400       .  A
C1770      H1774   1.083       .  S
C1775      C1776   1.400       .  A
C1775      C1780   1.395       .  A
C1775      H1781   1.084       .  S
C1776      C1777   1.408       .  A
C1777      C1778   1.403       .  A
C1777      H1782   1.083       .  S
C1778      C1779   1.402       .  A
C1778      H1783   1.083       .  S
C1779      C1780   1.406       .  A
C1780      H1784   1.084       .  S
C1785      C1786   1.400       .  A
C1785      C1790   1.394       .  A
C1785      H1791   1.084       .  S
C1786      C1787   1.406       .  A
C1787      C1788   1.404       .  A
C1787      H1792   1.083       .  S
C1788      C1789   1.403       .  A
C1788      H1793   1.083       .  S
C1789      C1790   1.404       .  A
C1790      H1794   1.084       .  S
C1795      C1796   1.403       .  A
C1795      C1800   1.401       .  A
C1795      H1801   1.083       .  S
C1796      C1797   1.409       .  A
C1797      C1798   1.402       .  A
C1797      H1802   1.083       .  S
C1798      C1799   1.404       .  A
C1798      H1803   1.083       .  S
C1799      C1800   1.409       .  A
C1800      H1804   1.083       .  S
C1805      C1806   1.410       .  A
C1805      C1810   1.404       .  A
C1805      H1811   1.083       .  S
C1806      C1807   1.399       .  A
C1807      C1808   1.395       .  A
C1807      H1812   1.083       .  S
C1808      C1809   1.407       .  A
C1808      H1813   1.084       .  S
C1809      C1810   1.401       .  A
C1810      H1814   1.083       .  S
C1815      C1816   1.409       .  A
C1815      C1820   1.398   1_455  A
C1815      H1821   1.083       .  S
C1816      C1817   1.403       .  A
C1817      C1818   1.402       .  A
C1817      H1822   1.083       .  S
C1818      C1819   1.409   1_455  A
C1818      H1823   1.083       .  S
C1819      C1820   1.401       .  A
C1820      H1824   1.083       .  S
C1825      C1826   1.400       .  A
C1825      C1830   1.403       .  A
C1825      H1831   1.083       .  S
C1826      C1827   1.404       .  A
C1827      C1828   1.392       .  A
C1827      H1832   1.084       .  S
C1828      C1829   1.401       .  A
C1828      H1833   1.083       .  S
C1829      C1830   1.411       .  A
C1830      H1834   1.083       .  S
C1835      C1836   1.403       .  A
C1835      C1840   1.395       .  A
C1835      H1841   1.084       .  S
C1836      C1837   1.405       .  A
C1837      C1838   1.402       .  A
C1837      H1842   1.083       .  S
C1838      C1839   1.403       .  A
C1838      H1843   1.083       .  S
C1839      C1840   1.402       .  A
C1840      H1844   1.084       .  S
C1845      C1846   1.403       .  A
C1845      C1850   1.403   1_565  A
C1845      H1851   1.083       .  S
C1846      C1847   1.411   1_565  A
C1847      C1848   1.402       .  A
C1847      H1852   1.083       .  S
C1848      C1849   1.403       .  A
C1848      H1853   1.083       .  S
C1849      C1850   1.411       .  A
C1850      H1854   1.083       .  S
C1855      C1856   1.399       .  A
C1855      C1860   1.393       .  A
C1855      H1861   1.083       .  S
C1856      C1857   1.410       .  A
C1857      C1858   1.402       .  A
C1857      H1862   1.083       .  S
C1858      C1859   1.400       .  A
C1858      H1863   1.083       .  S
C1859      C1860   1.407       .  A
C1860      H1864   1.084       .  S
C1865      C1866   1.404       .  A
C1865      C1870   1.401       .  A
C1865      H1871   1.083   1_554  S
C1866      C1867   1.408       .  A
C1867      C1868   1.402       .  A
C1867      H1872   1.083       .  S
C1868      C1869   1.405       .  A
C1868      H1873   1.083       .  S
C1869      C1870   1.408       .  A
C1870      H1874   1.083       .  S
C1875      C1876   1.401       .  A
C1875      C1880   1.396       .  A
C1875      H1881   1.084       .  S
C1876      C1877   1.405       .  A
C1877      C1878   1.403       .  A
C1877      H1882   1.083       .  S
C1878      C1879   1.403       .  A
C1878      H1883   1.083       .  S
C1879      C1880   1.404       .  A
C1880      H1884   1.084       .  S
C1885      C1886   1.399       .  A
C1885      C1890   1.393       .  A
C1885      H1891   1.083       .  S
C1886      C1887   1.410       .  A
C1887      C1888   1.404       .  A
C1887      H1892   1.083       .  S
C1888      C1889   1.401       .  A
C1888      H1893   1.083       .  S
C1889      C1890   1.406       .  A
C1890      H1894   1.084       .  S
C1895      C1896   1.409       .  A
C1895      C1900   1.400       .  A
C1895      H1901   1.083       .  S
C1896      C1897   1.403       .  A
C1897      C1898   1.401       .  A
C1897      H1902   1.083       .  S
C1898      C1899   1.409       .  A
C1898      H1903   1.083       .  S
C1899      C1900   1.402       .  A
C1900      H1904   1.083       .  S
C1905      C1906   1.403       .  A
C1905      C1910   1.403       .  A
C1905      H1911   1.083       .  S
C1906      C1907   1.407       .  A
C1907      C1908   1.392       .  A
C1907      H1912   1.083       .  S
C1908      C1909   1.398       .  A
C1908      H1913   1.084       .  S
C1909      C1910   1.407       .  A
C1910      H1914   1.083       .  S
C1915      C1916   1.404       .  A
C1915      C1920   1.405       .  A
C1915      H1921   1.083       .  S
C1916      C1917   1.410       .  A
C1917      C1918   1.400       .  A
C1917      H1922   1.083       .  S
C1918      C1919   1.402       .  A
C1918      H1923   1.083       .  S
C1919      C1920   1.410       .  A
C1920      H1924   1.083       .  S
C1925      C1926   1.398       .  A
C1925      C1930   1.397       .  A
C1925      H1931   1.083       .  S
C1926      C1927   1.403       .  A
C1927      C1928   1.399       .  A
C1927      H1932   1.084       .  S
C1928      C1929   1.403       .  A
C1928      H1933   1.083       .  S
C1929      C1930   1.408       .  A
C1930      H1934   1.083       .  S
C1935      C1936   1.406       .  A
C1935      C1940   1.396       .  A
C1935      H1941   1.083       .  S
C1936      C1937   1.403       .  A
C1937      C1938   1.403       .  A
C1937      H1942   1.083       .  S
C1938      C1939   1.405       .  A
C1938      H1943   1.084       .  S
C1939      C1940   1.399       .  A
C1940      H1944   1.083       .  S
C1945      C1946   1.409   1_545  A
C1945      C1950   1.399       .  A
C1945      H1951   1.083       .  S
C1946      C1947   1.405       .  A
C1947      C1948   1.405   1_565  A
C1947      H1952   1.083       .  S
C1948      C1949   1.409       .  A
C1948      H1953   1.083       .  S
C1949      C1950   1.402       .  A
C1950      H1954   1.083       .  S
C1955      C1956   1.410       .  A
C1955      C1960   1.404       .  A
C1955      H1961   1.083       .  S
C1956      C1957   1.404       .  A
C1957      C1958   1.402       .  A
C1957      H1962   1.083       .  S
C1958      C1959   1.410       .  A
C1958      H1963   1.083       .  S
C1959      C1960   1.404       .  A
C1960      H1964   1.083       .  S
C1965      C1966   1.399       .  A
C1965      C1970   1.403       .  A
C1965      H1971   1.083       .  S
C1966      C1967   1.405       .  A
C1967      C1968   1.396       .  A
C1967      H1972   1.084       .  S
C1968      C1969   1.402       .  A
C1968      H1973   1.083       .  S
C1969      C1970   1.412       .  A
C1970      H1974   1.083       .  S
C1975      C1976   1.404       .  A
C1975      C1980   1.400       .  A
C1975      H1981   1.083   1_554  S
C1976      C1977   1.407       .  A
C1977      C1978   1.397       .  A
C1977      H1982   1.083       .  S
C1978      C1979   1.403       .  A
C1978      H1983   1.083       .  S
C1979      C1980   1.407       .  A
C1980      H1984   1.083       .  S
C1985      C1986   1.403       .  A
C1985      C1990   1.400       .  A
C1985      H1991   1.083       .  S
C1986      C1987   1.408       .  A
C1987      C1988   1.399       .  A
C1987      H1992   1.083       .  S
C1988      C1989   1.403       .  A
C1988      H1993   1.083       .  S
C1989      C1990   1.408       .  A
C1990      H1994   1.083       .  S
C1995      C1996   1.403       .  A
C1995      C2000   1.404       .  A
C1995      H2001   1.083       .  S
C1996      C1997   1.407       .  A
C1997      C1998   1.388       .  A
C1997      H2002   1.084       .  S
C1998      C1999   1.396       .  A
C1998      H2003   1.084       .  S
C1999      C2000   1.408       .  A
C2000      H2004   1.083       .  S
C2005      C2006   1.401       .  A
C2005      C2010   1.394       .  A
C2005      H2011   1.083       .  S
C2006      C2007   1.411       .  A
C2007      C2008   1.403       .  A
C2007      H2012   1.083       .  S
C2008      C2009   1.399       .  A
C2008      H2013   1.083       .  S
C2009      C2010   1.404       .  A
C2010      H2014   1.084       .  S
C2015      C2016   1.404       .  A
C2015      C2020   1.404   1_655  A
C2015      H2021   1.083       .  S
C2016      C2017   1.410   1_655  A
C2017      C2018   1.401       .  A
C2017      H2022   1.083       .  S
C2018      C2019   1.403       .  A
C2018      H2023   1.083       .  S
C2019      C2020   1.410       .  A
C2020      H2024   1.083       .  S
C2025      C2026   1.406       .  A
C2025      C2030   1.393       .  A
C2025      H2031   1.084       .  S
C2026      C2027   1.402       .  A
C2027      C2028   1.405       .  A
C2027      H2032   1.083       .  S
C2028      C2029   1.410       .  A
C2028      H2033   1.083       .  S
C2029      C2030   1.399       .  A
C2030      H2034   1.083       .  S
C2035      C2036   1.402       .  A
C2035      C2040   1.400       .  A
C2035      H2041   1.083       .  S
C2036      C2037   1.410       .  A
C2037      C2038   1.401       .  A
C2037      H2042   1.083       .  S
C2038      C2039   1.402       .  A
C2038      H2043   1.083       .  S
C2039      C2040   1.410       .  A
C2040      H2044   1.083       .  S
C2045      C2046   1.401       .  A
C2045      C2050   1.404       .  A
C2045      H2051   1.083       .  S
C2046      C2047   1.408       .  A
C2047      C2048   1.395       .  A
C2047      H2052   1.084       .  S
C2048      C2049   1.399       .  A
C2048      H2053   1.083       .  S
C2049      C2050   1.411       .  A
C2050      H2054   1.083       .  S
C2055      C2056   1.409       .  A
C2055      C2060   1.402       .  A
C2055      H2061   1.083       .  S
C2056      C2057   1.398       .  A
C2057      C2058   1.392       .  A
C2057      H2062   1.084       .  S
C2058      C2059   1.406       .  A
C2058      H2063   1.084       .  S
C2059      C2060   1.400       .  A
C2060      H2064   1.083       .  S
C2065      C2066   1.409       .  A
C2065      C2070   1.396       .  A
C2065      H2071   1.083       .  S
C2066      C2067   1.399       .  A
C2067      C2068   1.394       .  A
C2067      H2072   1.083       .  S
C2068      C2069   1.409       .  A
C2068      H2073   1.083       .  S
C2069      C2070   1.400       .  A
C2070      H2074   1.083       .  S
C2075      C2076   1.408       .  A
C2075      C2080   1.393       .  A
C2075      H2081   1.083       .  S
C2076      C2077   1.401       .  A
C2077      C2078   1.397       .  A
C2077      H2082   1.083       .  S
C2078      C2079   1.408       .  A
C2078      H2083   1.083       .  S
C2079      C2080   1.399       .  A
C2080      H2084   1.083       .  S
C2085      C2086   1.400       .  A
C2085      C2090   1.393       .  A
C2085      H2091   1.083       .  S
C2086      C2087   1.410       .  A
C2087      C2088   1.404       .  A
C2087      H2092   1.083       .  S
C2088      C2089   1.401       .  A
C2088      H2093   1.083       .  S
C2089      C2090   1.405       .  A
C2090      H2094   1.084       .  S
C2095      C2096   1.401       .  A
C2095      C2100   1.394       .  A
C2095      H2101   1.083       .  S
C2096      C2097   1.408       .  A
C2097      C2098   1.395       .  A
C2097      H2102   1.083       .  S
C2098      C2099   1.400       .  A
C2098      H2103   1.083       .  S
C2099      C2100   1.407       .  A
C2100      H2104   1.083       .  S
C2105      C2106   1.400       .  A
C2105      C2110   1.393       .  A
C2105      H2111   1.083       .  S
C2106      C2107   1.410       .  A
C2107      C2108   1.404       .  A
C2107      H2112   1.083       .  S
C2108      C2109   1.401       .  A
C2108      H2113   1.083       .  S
C2109      C2110   1.406       .  A
C2110      H2114   1.084       .  S
C2115      C2116   1.408       .  A
C2115      C2120   1.394       .  A
C2115      H2121   1.083       .  S
C2116      C2117   1.399       .  A
C2117      C2118   1.394       .  A
C2117      H2122   1.083       .  S
C2118      C2119   1.408       .  A
C2118      H2123   1.083       .  S
C2119      C2120   1.399       .  A
C2120      H2124   1.083       .  S
C2125      C2126   1.406       .  A
C2125      C2130   1.403       .  A
C2125      H2131   1.083       .  S
C2126      C2127   1.409       .  A
C2127      C2128   1.392       .  A
C2127      H2132   1.083   1_655  S
C2128      C2129   1.395       .  A
C2128      H2133   1.084   1_655  S
C2129      C2130   1.404       .  A
C2130      H2134   1.083       .  S
C2135      C2136   1.408       .  A
C2135      C2140   1.398       .  A
C2135      H2141   1.083       .  S
C2136      C2137   1.399       .  A
C2137      C2138   1.393       .  A
C2137      H2142   1.083       .  S
C2138      C2139   1.408       .  A
C2138      H2143   1.083       .  S
C2139      C2140   1.401       .  A
C2140      H2144   1.083       .  S
C2145      C2146   1.404       .  A
C2145      C2150   1.396       .  A
C2145      H2151   1.084       .  S
C2146      C2147   1.399       .  A
C2147      C2148   1.403       .  A
C2147      H2152   1.083       .  S
C2148      C2149   1.412       .  A
C2148      H2153   1.083       .  S
C2149      C2150   1.402       .  A
C2150      H2154   1.083       .  S
C2155      C2156   1.408       .  A
C2155      C2160   1.391       .  A
C2155      H2161   1.083       .  S
C2156      C2157   1.402       .  A
C2157      C2158   1.401       .  A
C2157      H2162   1.083       .  S
C2158      C2159   1.409       .  A
C2158      H2163   1.083       .  S
C2159      C2160   1.398       .  A
C2160      H2164   1.083       .  S
C2165      C2166   1.409       .  A
C2165      C2170   1.404       .  A
C2165      H2171   1.083       .  S
C2166      C2167   1.399       .  A
C2167      C2168   1.393       .  A
C2167      H2172   1.084       .  S
C2168      C2169   1.407       .  A
C2168      H2173   1.083       .  S
C2169      C2170   1.402       .  A
C2170      H2174   1.083       .  S
C2175      C2176   1.403       .  A
C2175      C2180   1.402       .  A
C2175      H2181   1.083       .  S
C2176      C2177   1.404       .  A
C2177      C2178   1.395       .  A
C2177      H2182   1.084       .  S
C2178      C2179   1.401       .  A
C2178      H2183   1.084       .  S
C2179      C2180   1.405       .  A
C2180      H2184   1.083       .  S
C2185      C2186   1.401       .  A
C2185      C2190   1.397       .  A
C2185      H2191   1.083       .  S
C2186      C2187   1.407       .  A
C2187      C2188   1.392       .  A
C2187      H2192   1.083       .  S
C2188      C2189   1.399       .  A
C2188      H2193   1.083       .  S
C2189      C2190   1.408       .  A
C2190      H2194   1.083       .  S
C2195      C2196   1.403       .  A
C2195      C2200   1.401       .  A
C2195      H2201   1.083       .  S
C2196      C2197   1.409   1_545  A
C2197      C2198   1.398   1_565  A
C2197      H2202   1.083       .  S
C2198      C2199   1.402       .  A
C2198      H2203   1.083   1_545  S
C2199      C2200   1.409       .  A
C2200      H2204   1.083       .  S
C2205      C2206   1.399       .  A
C2205      C2210   1.391       .  A
C2205      H2211   1.083       .  S
C2206      C2207   1.408       .  A
C2207      C2208   1.397       .  A
C2207      H2212   1.083       .  S
C2208      C2209   1.400       .  A
C2208      H2213   1.083       .  S
C2209      C2210   1.408       .  A
C2210      H2214   1.083       .  S
C2215      C2216   1.409       .  A
C2215      C2220   1.402       .  A
C2215      H2221   1.083       .  S
C2216      C2217   1.399       .  A
C2217      C2218   1.393       .  A
C2217      H2222   1.083       .  S
C2218      C2219   1.406       .  A
C2218      H2223   1.084       .  S
C2219      C2220   1.400       .  A
C2220      H2224   1.083       .  S
C2225      C2226   1.401       .  A
C2225      C2230   1.399       .  A
C2225      H2231   1.083       .  S
C2226      C2227   1.408       .  A
C2227      C2228   1.391       .  A
C2227      H2232   1.083       .  S
C2228      C2229   1.398       .  A
C2228      H2233   1.083       .  S
C2229      C2230   1.409       .  A
C2230      H2234   1.083       .  S
C2235      C2236   1.403       .  A
C2235      C2240   1.401       .  A
C2235      H2241   1.083       .  S
C2236      C2237   1.404   1_556  A
C2237      C2238   1.395       .  A
C2237      H2242   1.084       .  S
C2238      C2239   1.401   1_554  A
C2238      H2243   1.084       .  S
C2239      C2240   1.404       .  A
C2240      H2244   1.083       .  S
C2245      C2246   1.402       .  A
C2245      C2250   1.399       .  A
C2245      H2251   1.083       .  S
C2246      C2247   1.408       .  A
C2247      C2248   1.388       .  A
C2247      H2252   1.083       .  S
C2248      C2249   1.397       .  A
C2248      H2253   1.083       .  S
C2249      C2250   1.407       .  A
C2250      H2254   1.083       .  S
C2255      C2256   1.409   1_565  A
C2255      C2260   1.403   1_565  A
C2255      H2261   1.083       .  S
C2256      C2257   1.402       .  A
C2257      C2258   1.398       .  A
C2257      H2262   1.083       .  S
C2258      C2259   1.409       .  A
C2258      H2263   1.083       .  S
C2259      C2260   1.404       .  A
C2260      H2264   1.083   1_545  S
C2265      C2266   1.409       .  A
C2265      C2270   1.404       .  A
C2265      H2271   1.083       .  S
C2266      C2267   1.399       .  A
C2267      C2268   1.393       .  A
C2267      H2272   1.083       .  S
C2268      C2269   1.408       .  A
C2268      H2273   1.083       .  S
C2269      C2270   1.403       .  A
C2270      H2274   1.083       .  S
C2275      C2276   1.400       .  A
C2275      C2280   1.397       .  A
C2275      H2281   1.083       .  S
C2276      C2277   1.408       .  A
C2277      C2278   1.393       .  A
C2277      H2282   1.083       .  S
C2278      C2279   1.399       .  A
C2278      H2283   1.083       .  S
C2279      C2280   1.408       .  A
C2280      H2284   1.083       .  S
C2285      C2286   1.403       .  A
C2285      C2290   1.398       .  A
C2285      H2291   1.083       .  S
C2286      C2287   1.407       .  A
C2287      C2288   1.396       .  A
C2287      H2292   1.083   1_565  S
C2288      C2289   1.398       .  A
C2288      H2293   1.083   1_565  S
C2289      C2290   1.403       .  A
C2290      H2294   1.084       .  S
C2295      C2296   1.399       .  A
C2295      C2300   1.393       .  A
C2295      H2301   1.083       .  S
C2296      C2297   1.409       .  A
C2297      C2298   1.395       .  A
C2297      H2302   1.083       .  S
C2298      C2299   1.399       .  A
C2298      H2303   1.083       .  S
C2299      C2300   1.408       .  A
C2300      H2304   1.083       .  S
C2305      C2306   1.409       .  A
C2305      C2310   1.402       .  A
C2305      H2311   1.083       .  S
C2306      C2307   1.400       .  A
C2307      C2308   1.393       .  A
C2307      H2312   1.083       .  S
C2308      C2309   1.405       .  A
C2308      H2313   1.084   1_556  S
C2309      C2310   1.400       .  A
C2310      H2314   1.083       .  S
C2315      C2316   1.411       .  A
C2315      C2320   1.400       .  A
C2315      H2321   1.083       .  S
C2316      C2317   1.403       .  A
C2317      C2318   1.397       .  A
C2317      H2322   1.083       .  S
C2318      C2319   1.403       .  A
C2318      H2323   1.084       .  S
C2319      C2320   1.398       .  A
C2320      H2324   1.083       .  S
C2325      C2326   1.400       .  A
C2325      C2330   1.391       .  A
C2325      H2331   1.083       .  S
C2326      C2327   1.409       .  A
C2327      C2328   1.396       .  A
C2327      H2332   1.083   1_556  S
C2328      C2329   1.398       .  A
C2328      H2333   1.083       .  S
C2329      C2330   1.405       .  A
C2330      H2334   1.084       .  S
C2335      C2336   1.409       .  A
C2335      C2340   1.402       .  A
C2335      H2341   1.083   1_554  S
C2336      C2337   1.402       .  A
C2337      C2338   1.398       .  A
C2337      H2342   1.083       .  S
C2338      C2339   1.409       .  A
C2338      H2343   1.083       .  S
C2339      C2340   1.403       .  A
C2340      H2344   1.083       .  S
C2345      C2346   1.408       .  A
C2345      C2350   1.392       .  A
C2345      H2351   1.083       .  S
C2346      C2347   1.399       .  A
C2347      C2348   1.396       .  A
C2347      H2352   1.083       .  S
C2348      C2349   1.409       .  A
C2348      H2353   1.083       .  S
C2349      C2350   1.398       .  A
C2350      H2354   1.083       .  S
C2355      C2356   1.408       .  A
C2355      C2360   1.401       .  A
C2355      H2361   1.083       .  S
C2356      C2357   1.398       .  A
C2357      C2358   1.392       .  A
C2357      H2362   1.084   1_556  S
C2358      C2359   1.406       .  A
C2358      H2363   1.084   1_556  S
C2359      C2360   1.401       .  A
C2360      H2364   1.083       .  S
C2365      C2366   1.409       .  A
C2365      C2370   1.394       .  A
C2365      H2371   1.083       .  S
C2366      C2367   1.400       .  A
C2367      C2368   1.395       .  A
C2367      H2372   1.083       .  S
C2368      C2369   1.408       .  A
C2368      H2373   1.083       .  S
C2369      C2370   1.399       .  A
C2370      H2374   1.083       .  S
C2375      C2376   1.407       .  A
C2375      C2380   1.393       .  A
C2375      H2381   1.084       .  S
C2376      C2377   1.400       .  A
C2377      C2378   1.402       .  A
C2377      H2382   1.083       .  S
C2378      C2379   1.409       .  A
C2378      H2383   1.083       .  S
C2379      C2380   1.398       .  A
C2380      H2384   1.083       .  S
C2385      C2386   1.398       .  A
C2385      C2390   1.394       .  A
C2385      H2391   1.083       .  S
C2386      C2387   1.410       .  A
C2387      C2388   1.394       .  A
C2387      H2392   1.083       .  S
C2388      C2389   1.397       .  A
C2388      H2393   1.083       .  S
C2389      C2390   1.409       .  A
C2390      H2394   1.083       .  S
C2395      C2396   1.401       .  A
C2395      C2400   1.403       .  A
C2395      H2401   1.083       .  S
C2396      C2397   1.406       .  A
C2397      C2398   1.394       .  A
C2397      H2402   1.084       .  S
C2398      C2399   1.400       .  A
C2398      H2403   1.083       .  S
C2399      C2400   1.410       .  A
C2400      H2404   1.083       .  S
C2405      C2406   1.408       .  A
C2405      C2410   1.395       .  A
C2405      H2411   1.083       .  S
C2406      C2407   1.398       .  A
C2407      C2408   1.393       .  A
C2407      H2412   1.083       .  S
C2408      C2409   1.409       .  A
C2408      H2413   1.083       .  S
C2409      C2410   1.400       .  A
C2410      H2414   1.083       .  S
C2415      C2416   1.403       .  A
C2415      C2420   1.401   1_554  A
C2415      H2421   1.083   1_554  S
C2416      C2417   1.408       .  A
C2417      C2418   1.398       .  A
C2417      H2422   1.083       .  S
C2418      C2419   1.402       .  A
C2418      H2423   1.083       .  S
C2419      C2420   1.408   1_554  A
C2420      H2424   1.083       .  S
C2425      C2426   1.399       .  A
C2425      C2430   1.394       .  A
C2425      H2431   1.083       .  S
C2426      C2427   1.410       .  A
C2427      C2428   1.403       .  A
C2427      H2432   1.083       .  S
C2428      C2429   1.400       .  A
C2428      H2433   1.083       .  S
C2429      C2430   1.407       .  A
C2430      H2434   1.084       .  S
C2435      C2436   1.408       .  A
C2435      C2440   1.394       .  A
C2435      H2441   1.083       .  S
C2436      C2437   1.402       .  A
C2437      C2438   1.399       .  A
C2437      H2442   1.083       .  S
C2438      C2439   1.409       .  A
C2438      H2443   1.083       .  S
C2439      C2440   1.400       .  A
C2440      H2444   1.083       .  S
C2445      C2446   1.405       .  A
C2445      C2450   1.404       .  A
C2445      H2451   1.083       .  S
C2446      C2447   1.406       .  A
C2447      C2448   1.397       .  A
C2447      H2452   1.083       .  S
C2448      C2449   1.401       .  A
C2448      H2453   1.084       .  S
C2449      C2450   1.406       .  A
C2450      H2454   1.083       .  S
C2455      C2456   1.395       .  A
C2455      C2460   1.389       .  A
C2455      H2461   1.084       .  S
C2456      C2457   1.404       .  A
C2457      C2458   1.404       .  A
C2457      H2462   1.084       .  S
C2458      C2459   1.406       .  A
C2458      H2463   1.082       .  S
C2459      C2460   1.408       .  A
C2460      H2464   1.083       .  S
C2465      C2466   1.402       .  A
C2465      C2470   1.399       .  A
C2465      H2471   1.083       .  S
C2466      C2467   1.408       .  A
C2467      C2468   1.391       .  A
C2467      H2472   1.083       .  S
C2468      C2469   1.398       .  A
C2468      H2473   1.083       .  S
C2469      C2470   1.408       .  A
C2470      H2474   1.083       .  S
C2475      C2476   1.410       .  A
C2475      C2480   1.401       .  A
C2475      H2481   1.083       .  S
C2476      C2477   1.404       .  A
C2477      C2478   1.404       .  A
C2477      H2482   1.083       .  S
C2478      C2479   1.410       .  A
C2478      H2483   1.083       .  S
C2479      C2480   1.403       .  A
C2480      H2484   1.083       .  S
C2485      C2486   1.400       .  A
C2485      C2490   1.395       .  A
C2485      H2491   1.083       .  S
C2486      C2487   1.409       .  A
C2487      C2488   1.396       .  A
C2487      H2492   1.083       .  S
C2488      C2489   1.400       .  A
C2488      H2493   1.083       .  S
C2489      C2490   1.409       .  A
C2490      H2494   1.083       .  S
C2495      C2496   1.402       .  A
C2495      C2500   1.399   1_545  A
C2495      H2501   1.083   1_545  S
C2496      C2497   1.411       .  A
C2497      C2498   1.408       .  A
C2497      H2502   1.083       .  S
C2498      C2499   1.406       .  A
C2498      H2503   1.083       .  S
C2499      C2500   1.411   1_545  A
C2500      H2504   1.083       .  S
C2505      C2506   1.406       .  A
C2505      C2510   1.405       .  A
C2505      H2511   1.083       .  S
C2506      C2507   1.406       .  A
C2507      C2508   1.394       .  A
C2507      H2512   1.083       .  S
C2508      C2509   1.399       .  A
C2508      H2513   1.084       .  S
C2509      C2510   1.404       .  A
C2510      H2514   1.083       .  S
C2515      C2516   1.401       .  A
C2515      C2520   1.396       .  A
C2515      H2521   1.083       .  S
C2516      C2517   1.408       .  A
C2517      C2518   1.396       .  A
C2517      H2522   1.083       .  S
C2518      C2519   1.401       .  A
C2518      H2523   1.083       .  S
C2519      C2520   1.408       .  A
C2520      H2524   1.083       .  S
C2525      C2526   1.409       .  A
C2525      C2530   1.400       .  A
C2525      H2531   1.083       .  S
C2526      C2527   1.404       .  A
C2527      C2528   1.402       .  A
C2527      H2532   1.083       .  S
C2528      C2529   1.409       .  A
C2528      H2533   1.083       .  S
C2529      C2530   1.403       .  A
C2530      H2534   1.083       .  S
C2535      C2536   1.400       .  A
C2535      C2540   1.396       .  A
C2535      H2541   1.083       .  S
C2536      C2537   1.409       .  A
C2537      C2538   1.397       .  A
C2537      H2542   1.083       .  S
C2538      C2539   1.400       .  A
C2538      H2543   1.083       .  S
C2539      C2540   1.409       .  A
C2540      H2544   1.083       .  S
C2545      C2546   1.401       .  A
C2545      C2550   1.396       .  A
C2545      H2551   1.083       .  S
C2546      C2547   1.412       .  A
C2547      C2548   1.405       .  A
C2547      H2552   1.083       .  S
C2548      C2549   1.401       .  A
C2548      H2553   1.083       .  S
C2549      C2550   1.406       .  A
C2550      H2554   1.084       .  S
C2555      C2556   1.410       .  A
C2555      C2560   1.404       .  A
C2555      H2561   1.083       .  S
C2556      C2557   1.400       .  A
C2557      C2558   1.395       .  A
C2557      H2562   1.083       .  S
C2558      C2559   1.406       .  A
C2558      H2563   1.084       .  S
C2559      C2560   1.401       .  A
C2560      H2564   1.083       .  S
C2565      C2566   1.409       .  A
C2565      C2570   1.395       .  A
C2565      H2571   1.083       .  S
C2566      C2567   1.399       .  A
C2567      C2568   1.394       .  A
C2567      H2572   1.083       .  S
C2568      C2569   1.409       .  A
C2568      H2573   1.083       .  S
C2569      C2570   1.398       .  A
C2570      H2574   1.083       .  S
C2575      C2576   1.410   1_565  A
C2575      C2580   1.399   1_565  A
C2575      H2581   1.083       .  S
C2576      C2577   1.402       .  A
C2577      C2578   1.402       .  A
C2577      H2582   1.083       .  S
C2578      C2579   1.411       .  A
C2578      H2583   1.083       .  S
C2579      C2580   1.401       .  A
C2580      H2584   1.083   1_545  S
C2585      C2586   1.407       .  A
C2585      C2590   1.392       .  A
C2585      H2591   1.084       .  S
C2586      C2587   1.402       .  A
C2587      C2588   1.403       .  A
C2587      H2592   1.083       .  S
C2588      C2589   1.408       .  A
C2588      H2593   1.083       .  S
C2589      C2590   1.398       .  A
C2590      H2594   1.084       .  S
C2595      C2596   1.408       .  A
C2595      C2600   1.397       .  A
C2595      H2601   1.083       .  S
C2596      C2597   1.398       .  A
C2597      C2598   1.390       .  A
C2597      H2602   1.083       .  S
C2598      C2599   1.408       .  A
C2598      H2603   1.083       .  S
C2599      C2600   1.400       .  A
C2600      H2604   1.083       .  S
C2605      C2606   1.400       .  A
C2605      C2610   1.393       .  A
C2605      H2611   1.084       .  S
C2606      C2607   1.405       .  A
C2607      C2608   1.402       .  A
C2607      H2612   1.083       .  S
C2608      C2609   1.402       .  A
C2608      H2613   1.083       .  S
C2609      C2610   1.404       .  A
C2610      H2614   1.084       .  S
C2615      C2616   1.411       .  A
C2615      C2620   1.404       .  A
C2615      H2621   1.083       .  S
C2616      C2617   1.400       .  A
C2617      C2618   1.395       .  A
C2617      H2622   1.083       .  S
C2618      C2619   1.407       .  A
C2618      H2623   1.084       .  S
C2619      C2620   1.401       .  A
C2620      H2624   1.083       .  S
C2625      C2626   1.409       .  A
C2625      C2630   1.398       .  A
C2625      H2631   1.083       .  S
C2626      C2627   1.398       .  A
C2627      C2628   1.392       .  A
C2627      H2632   1.083       .  S
C2628      C2629   1.408       .  A
C2628      H2633   1.083       .  S
C2629      C2630   1.400       .  A
C2630      H2634   1.083       .  S
C2635      C2636   1.400       .  A
C2635      C2640   1.398       .  A
C2635      H2641   1.083       .  S
C2636      C2637   1.409       .  A
C2637      C2638   1.394       .  A
C2637      H2642   1.083       .  S
C2638      C2639   1.399       .  A
C2638      H2643   1.083       .  S
C2639      C2640   1.410       .  A
C2640      H2644   1.083       .  S
C2645      C2646   1.401       .  A
C2645      C2650   1.404       .  A
C2645      H2651   1.083       .  S
C2646      C2647   1.407       .  A
C2647      C2648   1.395       .  A
C2647      H2652   1.084       .  S
C2648      C2649   1.400       .  A
C2648      H2653   1.083       .  S
C2649      C2650   1.410       .  A
C2650      H2654   1.083       .  S
C2655      C2656   1.408       .  A
C2655      C2660   1.395       .  A
C2655      H2661   1.083       .  S
C2656      C2657   1.398       .  A
C2657      C2658   1.392       .  A
C2657      H2662   1.083       .  S
C2658      C2659   1.408       .  A
C2658      H2663   1.083       .  S
C2659      C2660   1.400       .  A
C2660      H2664   1.083       .  S
C2665      C2666   1.410       .  A
C2665      C2670   1.402       .  A
C2665      H2671   1.083       .  S
C2666      C2667   1.404       .  A
C2667      C2668   1.403       .  A
C2667      H2672   1.083       .  S
C2668      C2669   1.410       .  A
C2668      H2673   1.083       .  S
C2669      C2670   1.403       .  A
C2670      H2674   1.083       .  S
C2675      C2676   1.404       .  A
C2675      C2680   1.398       .  A
C2675      H2681   1.084       .  S
C2676      C2677   1.397       .  A
C2677      C2678   1.397       .  A
C2677      H2682   1.083       .  S
C2678      C2679   1.411       .  A
C2678      H2683   1.083       .  S
C2679      C2680   1.403       .  A
C2680      H2684   1.083       .  S
C2685      C2686   1.399       .  A
C2685      C2690   1.393       .  A
C2685      H2691   1.083       .  S
C2686      C2687   1.409       .  A
C2687      C2688   1.397       .  A
C2687      H2692   1.083       .  S
C2688      C2689   1.400       .  A
C2688      H2693   1.083       .  S
C2689      C2690   1.408       .  A
C2690      H2694   1.083       .  S
C2695      C2696   1.399       .  A
C2695      C2700   1.402       .  A
C2695      H2701   1.083       .  S
C2696      C2697   1.404       .  A
C2697      C2698   1.396       .  A
C2697      H2702   1.084       .  S
C2698      C2699   1.402       .  A
C2698      H2703   1.083       .  S
C2699      C2700   1.412       .  A
C2700      H2704   1.083       .  S
C2705      C2706   1.400       .  A
C2705      C2710   1.397       .  A
C2705      H2711   1.083       .  S
C2706      C2707   1.408       .  A
C2707      C2708   1.392       .  A
C2707      H2712   1.083       .  S
C2708      C2709   1.399       .  A
C2708      H2713   1.083       .  S
C2709      C2710   1.408       .  A
C2710      H2714   1.083       .  S
C2715      C2716   1.405       .  A
C2715      C2720   1.391       .  A
C2715      H2721   1.084       .  S
C2716      C2717   1.401       .  A
C2717      C2718   1.403       .  A
C2717      H2722   1.083       .  S
C2718      C2719   1.409       .  A
C2718      H2723   1.083       .  S
C2719      C2720   1.399       .  A
C2720      H2724   1.083       .  S
C2725      C2726   1.400       .  A
C2725      C2730   1.395       .  A
C2725      H2731   1.083       .  S
C2726      C2727   1.409       .  A
C2727      C2728   1.397       .  A
C2727      H2732   1.083       .  S
C2728      C2729   1.401       .  A
C2728      H2733   1.083       .  S
C2729      C2730   1.408       .  A
C2730      H2734   1.083       .  S
C2735      C2736   1.410       .  A
C2735      C2740   1.402       .  A
C2735      H2741   1.083       .  S
C2736      C2737   1.405       .  A
C2737      C2738   1.405       .  A
C2737      H2742   1.083       .  S
C2738      C2739   1.410       .  A
C2738      H2743   1.083       .  S
C2739      C2740   1.404       .  A
C2740      H2744   1.083       .  S
C2745      C2746   1.399       .  A
C2745      C2750   1.403       .  A
C2745      H2751   1.083       .  S
C2746      C2747   1.404       .  A
C2747      C2748   1.397       .  A
C2747      H2752   1.084       .  S
C2748      C2749   1.403       .  A
C2748      H2753   1.083       .  S
C2749      C2750   1.412       .  A
C2750      H2754   1.083       .  S
C2755      C2756   1.412       .  A
C2755      C2760   1.404       .  A
C2755      H2761   1.083       .  S
C2756      C2757   1.401       .  A
C2757      C2758   1.395       .  A
C2757      H2762   1.083       .  S
C2758      C2759   1.405       .  A
C2758      H2763   1.084       .  S
C2759      C2760   1.400       .  A
C2760      H2764   1.083       .  S
C2765      C2766   1.408       .  A
C2765      C2770   1.393       .  A
C2765      H2771   1.083       .  S
C2766      C2767   1.399       .  A
C2767      C2768   1.395       .  A
C2767      H2772   1.083       .  S
C2768      C2769   1.409       .  A
C2768      H2773   1.083       .  S
C2769      C2770   1.398       .  A
C2770      H2774   1.083       .  S
C2775      C2776   1.407       .  A
C2775      C2780   1.397       .  A
C2775      H2781   1.083       .  S
C2776      C2777   1.401       .  A
C2777      C2778   1.394       .  A
C2777      H2782   1.083       .  S
C2778      C2779   1.407       .  A
C2778      H2783   1.083       .  S
C2779      C2780   1.402       .  A
C2780      H2784   1.083       .  S
C2785      C2786   1.407       .  A
C2785      C2790   1.396       .  A
C2785      H2791   1.083       .  S
C2786      C2787   1.405       .  A
C2787      C2788   1.403       .  A
C2787      H2792   1.083       .  S
C2788      C2789   1.407       .  A
C2788      H2793   1.083       .  S
C2789      C2790   1.402       .  A
C2790      H2794   1.083       .  S
C2795      C2796   1.398       .  A
C2795      C2800   1.392       .  A
C2795      H2801   1.083       .  S
C2796      C2797   1.410       .  A
C2797      C2798   1.402       .  A
C2797      H2802   1.083       .  S
C2798      C2799   1.400       .  A
C2798      H2803   1.083       .  S
C2799      C2800   1.407       .  A
C2800      H2804   1.084       .  S
C2805      C2806   1.400       .  A
C2805      C2810   1.393       .  A
C2805      H2811   1.083       .  S
C2806      C2807   1.410       .  A
C2807      C2808   1.393       .  A
C2807      H2812   1.083       .  S
C2808      C2809   1.396       .  A
C2808      H2813   1.083       .  S
C2809      C2810   1.406       .  A
C2810      H2814   1.084       .  S
C2815      C2816   1.403       .  A
C2815      C2820   1.401       .  A
C2815      H2821   1.083       .  S
C2816      C2817   1.410       .  A
C2817      C2818   1.402       .  A
C2817      H2822   1.083       .  S
C2818      C2819   1.403       .  A
C2818      H2823   1.083       .  S
C2819      C2820   1.410       .  A
C2820      H2824   1.083       .  S
C2825      C2826   1.411       .  A
C2825      C2830   1.402       .  A
C2825      H2831   1.083       .  S
C2826      C2827   1.400       .  A
C2827      C2828   1.393       .  A
C2827      H2832   1.083       .  S
C2828      C2829   1.405       .  A
C2828      H2833   1.084       .  S
C2829      C2830   1.400       .  A
C2830      H2834   1.083       .  S
C2835      C2836   1.409       .  A
C2835      C2840   1.395       .  A
C2835      H2841   1.083       .  S
C2836      C2837   1.400       .  A
C2837      C2838   1.395       .  A
C2837      H2842   1.083       .  S
C2838      C2839   1.408       .  A
C2838      H2843   1.083       .  S
C2839      C2840   1.400       .  A
C2840      H2844   1.083       .  S
C2845      C2846   1.403       .  A
C2845      C2850   1.401       .  A
C2845      H2851   1.083       .  S
C2846      C2847   1.409       .  A
C2847      C2848   1.400       .  A
C2847      H2852   1.083       .  S
C2848      C2849   1.403       .  A
C2848      H2853   1.083       .  S
C2849      C2850   1.408       .  A
C2850      H2854   1.083       .  S
C2855      C2856   1.405       .  A
C2855      C2860   1.394       .  A
C2855      H2861   1.083       .  S
C2856      C2857   1.405       .  A
C2857      C2858   1.404       .  A
C2857      H2862   1.083       .  S
C2858      C2859   1.404       .  A
C2858      H2863   1.083       .  S
C2859      C2860   1.400       .  A
C2860      H2864   1.084       .  S
C2865      C2866   1.408       .  A
C2865      C2870   1.392       .  A
C2865      H2871   1.083       .  S
C2866      C2867   1.401       .  A
C2867      C2868   1.399       .  A
C2867      H2872   1.083       .  S
C2868      C2869   1.409       .  A
C2868      H2873   1.083       .  S
C2869      C2870   1.399       .  A
C2870      H2874   1.083       .  S
C2875      C2876   1.399       .  A
C2875      C2880   1.403       .  A
C2875      H2881   1.083       .  S
C2876      C2877   1.406       .  A
C2877      C2878   1.393       .  A
C2877      H2882   1.084       .  S
C2878      C2879   1.400       .  A
C2878      H2883   1.083       .  S
C2879      C2880   1.412       .  A
C2880      H2884   1.083       .  S
C2885      C2886   1.401       .  A
C2885      C2890   1.398       .  A
C2885      H2891   1.083       .  S
C2886      C2887   1.409       .  A
C2887      C2888   1.394       .  A
C2887      H2892   1.083       .  S
C2888      C2889   1.399       .  A
C2888      H2893   1.083       .  S
C2889      C2890   1.409       .  A
C2890      H2894   1.083       .  S
C2895      C2896   1.411       .  A
C2895      C2900   1.403       .  A
C2895      H2901   1.083       .  S
C2896      C2897   1.401       .  A
C2897      C2898   1.399       .  A
C2897      H2902   1.083       .  S
C2898      C2899   1.410       .  A
C2898      H2903   1.083       .  S
C2899      C2900   1.403       .  A
C2900      H2904   1.083       .  S
C2905      C2906   1.404       .  A
C2905      C2910   1.395       .  A
C2905      H2911   1.084       .  S
C2906      C2907   1.399       .  A
C2907      C2908   1.403       .  A
C2907      H2912   1.083       .  S
C2908      C2909   1.412       .  A
C2908      H2913   1.083       .  S
C2909      C2910   1.402       .  A
C2910      H2914   1.083       .  S
C2915      C2916   1.402       .  A
C2915      C2920   1.401       .  A
C2915      H2921   1.083       .  S
C2916      C2917   1.402       .  A
C2917      C2918   1.394       .  A
C2917      H2922   1.084       .  S
C2918      C2919   1.402       .  A
C2918      H2923   1.083       .  S
C2919      C2920   1.405       .  A
C2920      H2924   1.083       .  S
C2925      C2926   1.399       .  A
C2925      C2930   1.390       .  A
C2925      H2931   1.083       .  S
C2926      C2927   1.409       .  A
C2927      C2928   1.398       .  A
C2927      H2932   1.083       .  S
C2928      C2929   1.400       .  A
C2928      H2933   1.083       .  S
C2929      C2930   1.407       .  A
C2930      H2934   1.083       .  S
C2935      C2936   1.404   1_655  A
C2935      C2940   1.402       .  A
C2935      H2941   1.083       .  S
C2936      C2937   1.409       .  A
C2937      C2938   1.403       .  A
C2937      H2942   1.083       .  S
C2938      C2939   1.404   1_455  A
C2938      H2943   1.083       .  S
C2939      C2940   1.409       .  A
C2940      H2944   1.083       .  S
C2945      C2946   1.399       .  A
C2945      C2950   1.395       .  A
C2945      H2951   1.083       .  S
C2946      C2947   1.409       .  A
C2947      C2948   1.396       .  A
C2947      H2952   1.083       .  S
C2948      C2949   1.399       .  A
C2948      H2953   1.083       .  S
C2949      C2950   1.409       .  A
C2950      H2954   1.083       .  S
C2955      C2956   1.402       .  A
C2955      C2960   1.394       .  A
C2955      H2961   1.084       .  S
C2956      C2957   1.405       .  A
C2957      C2958   1.402       .  A
C2957      H2962   1.083       .  S
C2958      C2959   1.402       .  A
C2958      H2963   1.083       .  S
C2959      C2960   1.403       .  A
C2960      H2964   1.084       .  S
C2965      C2966   1.410       .  A
C2965      C2970   1.395       .  A
C2965      H2971   1.083       .  S
C2966      C2967   1.399       .  A
C2967      C2968   1.397       .  A
C2967      H2972   1.083       .  S
C2968      C2969   1.410       .  A
C2968      H2973   1.083       .  S
C2969      C2970   1.398       .  A
C2970      H2974   1.083       .  S
C2975      C2976   1.411       .  A
C2975      C2980   1.401       .  A
C2975      H2981   1.083       .  S
C2976      C2977   1.404       .  A
C2977      C2978   1.406       .  A
C2977      H2982   1.083       .  S
C2978      C2979   1.411       .  A
C2978      H2983   1.083       .  S
C2979      C2980   1.402       .  A
C2980      H2984   1.083       .  S
C2985      C2986   1.410       .  A
C2985      C2990   1.404       .  A
C2985      H2991   1.083       .  S
C2986      C2987   1.399       .  A
C2987      C2988   1.395       .  A
C2987      H2992   1.083       .  S
C2988      C2989   1.408       .  A
C2988      H2993   1.083       .  S
C2989      C2990   1.402       .  A
C2990      H2994   1.083       .  S
C2995      C2996   1.409       .  A
C2995      C3000   1.398       .  A
C2995      H3001   1.083       .  S
C2996      C2997   1.399       .  A
C2997      C2998   1.393       .  A
C2997      H3002   1.083       .  S
C2998      C2999   1.408       .  A
C2998      H3003   1.083       .  S
C2999      C3000   1.401       .  A
C3000      H3004   1.083       .  S
C3005      C3006   1.406       .  A
C3005      C3010   1.403       .  A
C3005      H3011   1.083       .  S
C3006      C3007   1.400       .  A
C3007      C3008   1.396       .  A
C3007      H3012   1.083       .  S
C3008      C3009   1.406       .  A
C3008      H3013   1.083       .  S
C3009      C3010   1.403       .  A
C3010      H3014   1.083       .  S
C3015      C3016   1.400       .  A
C3015      C3020   1.394       .  A
C3015      H3021   1.083       .  S
C3016      C3017   1.408       .  A
C3017      C3018   1.396       .  A
C3017      H3022   1.083       .  S
C3018      C3019   1.400       .  A
C3018      H3023   1.083       .  S
C3019      C3020   1.408       .  A
C3020      H3024   1.083       .  S
C3025      C3026   1.408       .  A
C3025      C3030   1.399       .  A
C3025      H3031   1.083       .  S
C3026      C3027   1.405   1_655  A
C3027      C3028   1.403       .  A
C3027      H3032   1.083       .  S
C3028      C3029   1.408       .  A
C3028      H3033   1.083       .  S
C3029      C3030   1.403   1_455  A
C3030      H3034   1.083       .  S
C3035      C3036   1.406       .  A
C3035      C3040   1.393       .  A
C3035      H3041   1.084       .  S
C3036      C3037   1.401       .  A
C3037      C3038   1.402       .  A
C3037      H3042   1.083       .  S
C3038      C3039   1.409       .  A
C3038      H3043   1.083       .  S
C3039      C3040   1.399       .  A
C3040      H3044   1.083       .  S
C3045      C3046   1.408       .  A
C3045      C3050   1.395       .  A
C3045      H3051   1.083       .  S
C3046      C3047   1.401       .  A
C3047      C3048   1.397       .  A
C3047      H3052   1.083       .  S
C3048      C3049   1.408       .  A
C3048      H3053   1.083       .  S
C3049      C3050   1.400       .  A
C3050      H3054   1.083       .  S
C3055      C3056   1.408       .  A
C3055      C3060   1.399       .  A
C3055      H3061   1.083       .  S
C3056      C3057   1.404       .  A
C3057      C3058   1.402       .  A
C3057      H3062   1.083       .  S
C3058      C3059   1.409       .  A
C3058      H3063   1.083       .  S
C3059      C3060   1.403       .  A
C3060      H3064   1.083       .  S
C3065      C3066   1.406       .  A
C3065      C3070   1.404       .  A
C3065      H3071   1.083       .  S
C3066      C3067   1.409       .  A
C3067      C3068   1.392       .  A
C3067      H3072   1.083       .  S
C3068      C3069   1.396       .  A
C3068      H3073   1.084       .  S
C3069      C3070   1.404       .  A
C3070      H3074   1.083       .  S
C3075      C3076   1.399       .  A
C3075      C3080   1.394       .  A
C3075      H3081   1.083       .  S
C3076      C3077   1.410       .  A
C3077      C3078   1.403       .  A
C3077      H3082   1.083       .  S
C3078      C3079   1.401       .  A
C3078      H3083   1.083       .  S
C3079      C3080   1.407       .  A
C3080      H3084   1.084       .  S
C3085      C3086   1.400       .  A
C3085      C3090   1.395       .  A
C3085      H3091   1.083       .  S
C3086      C3087   1.409       .  A
C3087      C3088   1.395       .  A
C3087      H3092   1.083       .  S
C3088      C3089   1.399       .  A
C3088      H3093   1.083       .  S
C3089      C3090   1.408       .  A
C3090      H3094   1.083       .  S
C3095      C3096   1.401   1_455  A
C3095      C3100   1.398       .  A
C3095      H3101   1.083       .  S
C3096      C3097   1.409       .  A
C3097      C3098   1.402       .  A
C3097      H3102   1.083       .  S
C3098      C3099   1.403   1_655  A
C3098      H3103   1.083       .  S
C3099      C3100   1.409       .  A
C3100      H3104   1.083       .  S
C3105      C3106   1.409       .  A
C3105      C3110   1.396       .  A
C3105      H3111   1.083       .  S
C3106      C3107   1.399       .  A
C3107      C3108   1.394       .  A
C3107      H3112   1.083       .  S
C3108      C3109   1.408       .  A
C3108      H3113   1.083       .  S
C3109      C3110   1.400       .  A
C3110      H3114   1.083       .  S
C3115      C3116   1.409       .  A
C3115      C3120   1.399       .  A
C3115      H3121   1.083       .  S
C3116      C3117   1.404       .  A
C3117      C3118   1.404       .  A
C3117      H3122   1.083       .  S
C3118      C3119   1.409       .  A
C3118      H3123   1.083       .  S
C3119      C3120   1.403       .  A
C3120      H3124   1.083       .  S
C3125      C3126   1.410       .  A
C3125      C3130   1.403       .  A
C3125      H3131   1.083       .  S
C3126      C3127   1.399       .  A
C3127      C3128   1.394       .  A
C3127      H3132   1.083       .  S
C3128      C3129   1.407       .  A
C3128      H3133   1.084       .  S
C3129      C3130   1.400       .  A
C3130      H3134   1.083       .  S
C3135      C3136   1.401       .  A
C3135      C3140   1.396       .  A
C3135      H3141   1.083       .  S
C3136      C3137   1.407       .  A
C3137      C3138   1.394       .  A
C3137      H3142   1.083       .  S
C3138      C3139   1.401       .  A
C3138      H3143   1.083       .  S
C3139      C3140   1.407       .  A
C3140      H3144   1.083       .  S
C3145      C3146   1.403       .  A
C3145      C3150   1.399   1_554  A
C3145      H3151   1.083   1_554  S
C3146      C3147   1.409       .  A
C3147      C3148   1.404       .  A
C3147      H3152   1.083       .  S
C3148      C3149   1.405       .  A
C3148      H3153   1.083       .  S
C3149      C3150   1.409   1_554  A
C3150      H3154   1.083       .  S
C3155      C3156   1.402       .  A
C3155      C3160   1.395       .  A
C3155      H3161   1.083       .  S
C3156      C3157   1.411       .  A
C3157      C3158   1.404       .  A
C3157      H3162   1.083       .  S
C3158      C3159   1.400       .  A
C3158      H3163   1.083       .  S
C3159      C3160   1.404       .  A
C3160      H3164   1.084       .  S
C3165      C3166   1.410       .  A
C3165      C3170   1.393       .  A
C3165      H3171   1.083       .  S
C3166      C3167   1.399       .  A
C3167      C3168   1.396       .  A
C3167      H3172   1.083       .  S
C3168      C3169   1.409       .  A
C3168      H3173   1.083       .  S
C3169      C3170   1.397       .  A
C3170      H3174   1.083       .  S
C3175      C3176   1.403       .  A
C3175      C3180   1.402       .  A
C3175      H3181   1.083       .  S
C3176      C3177   1.410   1_554  A
C3177      C3178   1.400   1_556  A
C3177      H3182   1.083       .  S
C3178      C3179   1.402       .  A
C3178      H3183   1.083   1_554  S
C3179      C3180   1.410       .  A
C3180      H3184   1.083       .  S
C3185      C3186   1.408       .  A
C3185      C3190   1.390       .  A
C3185      H3191   1.083   1_556  S
C3186      C3187   1.404       .  A
C3187      C3188   1.404       .  A
C3187      H3192   1.083       .  S
C3188      C3189   1.406       .  A
C3188      H3193   1.083       .  S
C3189      C3190   1.396       .  A
C3190      H3194   1.084   1_556  S
C3195      C3196   1.408       .  A
C3195      C3200   1.391       .  A
C3195      H3201   1.083       .  S
C3196      C3197   1.401       .  A
C3197      C3198   1.398       .  A
C3197      H3202   1.083       .  S
C3198      C3199   1.409       .  A
C3198      H3203   1.083       .  S
C3199      C3200   1.398       .  A
C3200      H3204   1.083       .  S
C3205      C3206   1.402   1_655  A
C3205      C3210   1.400       .  A
C3205      H3211   1.083       .  S
C3206      C3207   1.410       .  A
C3207      C3208   1.401       .  A
C3207      H3212   1.083       .  S
C3208      C3209   1.403   1_455  A
C3208      H3213   1.083       .  S
C3209      C3210   1.410       .  A
C3210      H3214   1.083       .  S
C3215      C3216   1.403       .  A
C3215      C3220   1.403       .  A
C3215      H3221   1.083       .  S
C3216      C3217   1.399       .  A
C3217      C3218   1.394       .  A
C3217      H3222   1.084       .  S
C3218      C3219   1.406       .  A
C3218      H3223   1.083       .  S
C3219      C3220   1.406       .  A
C3220      H3224   1.083       .  S
C3225      C3226   1.400       .  A
C3225      C3230   1.395       .  A
C3225      H3231   1.083       .  S
C3226      C3227   1.408       .  A
C3227      C3228   1.396       .  A
C3227      H3232   1.083       .  S
C3228      C3229   1.400       .  A
C3228      H3233   1.083       .  S
C3229      C3230   1.408       .  A
C3230      H3234   1.083       .  S
C3235      C3236   1.402       .  A
C3235      C3240   1.398       .  A
C3235      H3241   1.083       .  S
C3236      C3237   1.410       .  A
C3237      C3238   1.404       .  A
C3237      H3242   1.083       .  S
C3238      C3239   1.404       .  A
C3238      H3243   1.083       .  S
C3239      C3240   1.409       .  A
C3240      H3244   1.083       .  S
C3245      C3246   1.405       .  A
C3245      C3250   1.402       .  A
C3245      H3251   1.083       .  S
C3246      C3247   1.401       .  A
C3247      C3248   1.396       .  A
C3247      H3252   1.084       .  S
C3248      C3249   1.405       .  A
C3248      H3253   1.083       .  S
C3249      C3250   1.404       .  A
C3250      H3254   1.083       .  S
C3255      C3256   1.400       .  A
C3255      C3260   1.403       .  A
C3255      H3261   1.083       .  S
C3256      C3257   1.406       .  A
C3257      C3258   1.393       .  A
C3257      H3262   1.084       .  S
C3258      C3259   1.399       .  A
C3258      H3263   1.083       .  S
C3259      C3260   1.411       .  A
C3260      H3264   1.083       .  S
