geometry optimzed in LAMMPS
_audit_creation_date              2020-12-01 
_audit_creation_method            'lammps2cif' 
_symmetry_space_group_name_H-M    'P1' 
_symmetry_Int_Tables_number       1 
_symmetry_cell_setting            triclinic 
loop_ 
_symmetry_equiv_pos_as_xyz 
  x,y,z 
_cell_length_a                    80.2714695 
_cell_length_b                    80.3504006180095 
_cell_length_c                    80.415732010398 
_cell_angle_alpha                 90.15905657341455 
_cell_angle_beta                  90.12793792717157 
_cell_angle_gamma                 89.76459148491269 
loop_ 
_atom_site_label 
_atom_site_type_symbol 
_atom_site_fract_x 
_atom_site_fract_y 
_atom_site_fract_z 
_atom_site_charge 
O1          O  0.51056494  0.12823852  0.14316479    -0.56700
C2          C  0.56705631  0.12088724  0.14996882     0.75900
O3          O  0.53019512  0.16801775  0.15513887    -0.57800
C4          C  0.51242522  0.13725803  0.13045334     0.75900
C5          C  0.51995597  0.12654223  0.18822122     0.78300
Cd6        Cd  0.53609012  0.13789905  0.15776485     1.37500
O7          O  0.55377465  0.11743982  0.14218926    -0.56700
O8          O  0.52512246  0.11648045  0.17725908    -0.55500
C9          C  0.54505360  0.17264200  0.15763943     0.78300
O10         O  0.52295724  0.14176082  0.18566317    -0.57900
O11         O  0.56577985  0.13130871  0.16168290    -0.56300
O12         O  0.52575634  0.14552685  0.12971577    -0.56300
O13         O  0.55535251  0.16147921  0.16185639    -0.55500
O14         O  0.71751124  0.09999995  0.09920998    -0.56700
C15         C  0.66956369  0.08148070  0.11184038     0.75900
O16         O  0.69189325  0.06922691  0.06163320    -0.57800
C17         C  0.72353120  0.10071991  0.08467217     0.75900
C18         C  0.71651077  0.04608167  0.10233015     0.78300
Cd19       Cd  0.69856606  0.07591432  0.09153796     1.37500
O20         O  0.68236879  0.09056395  0.11345549    -0.56700
O21         O  0.71341031  0.05792954  0.11223912    -0.55500
C22         C  0.68067618  0.08034159  0.06052179     0.78300
O23         O  0.71058803  0.04749876  0.08779465    -0.57900
O24         O  0.67077835  0.06914510  0.10205196    -0.56300
O25         O  0.71829379  0.09013367  0.07435887    -0.56300
O26         O  0.67739748  0.08837751  0.07364589    -0.55500
O27         O  0.89981678  0.61929093  0.79949294    -0.56700
C28         C  0.88496839  0.59857273  0.75940265     0.75900
O29         O  0.93882070  0.59030481  0.76706996    -0.57800
C30         C  0.90646207  0.61464513  0.81302186     0.75900
C31         C  0.91058599  0.56197114  0.79091836     0.78300
Cd32       Cd  0.91270187  0.59663451  0.78232743     1.37500
O33         O  0.89855179  0.60599313  0.75669653    -0.56700
O34         O  0.91700812  0.57234806  0.80089071    -0.55500
C35         C  0.94353085  0.60518704  0.76533029     0.78300
O36         O  0.90684317  0.56726892  0.77660604    -0.57900
O37         O  0.88351517  0.59159561  0.77338597    -0.56300
O38         O  0.91637485  0.60243215  0.81215502    -0.56300
O39         O  0.93458914  0.61619634  0.77221200    -0.55500
O40         O  0.86519942  0.63867085  0.92759566    -0.56700
C41         C  0.83508623  0.62691121  0.96635625     0.75900
O42         O  0.83899131  0.68163221  0.95651433    -0.57800
C43         C  0.86546131  0.64879021  0.91552254     0.75900
C44         C  0.81251969  0.65317655  0.92414612     0.78300
Cd45       Cd  0.84301246  0.65367485  0.94328927     1.37500
O46         O  0.82426227  0.63597628  0.95948293    -0.56700
O47         O  0.81392868  0.66274807  0.93663858    -0.55500
C48         C  0.85319572  0.68248457  0.96328482     0.78300
O49         O  0.82532876  0.64495525  0.92004489    -0.57900
O50         O  0.85009277  0.62977585  0.96251949    -0.56300
O51         O  0.85628746  0.66157693  0.91681323    -0.56300
O52         O  0.86298354  0.67046592  0.96037938    -0.55500
O53         O  0.02595892  0.64017620  0.63484065    -0.56700
C54         C  0.07162966  0.62279782  0.65454464     0.75900
O55         O  0.05465413  0.67420202  0.66853942    -0.57800
C56         C  0.01915180  0.65443444  0.63503241     0.75900
C57         C  0.02529696  0.63569205  0.68893688     0.78300
Cd58       Cd  0.04431261  0.64591748  0.65978956     1.37500
O59         O  0.05860549  0.62221814  0.64559138    -0.56700
O60         O  0.02895757  0.62561804  0.67740044    -0.55500
C61         C  0.06486730  0.67528179  0.65657503     0.78300
O62         O  0.03116592  0.65022262  0.68761753    -0.57900
O63         O  0.07140553  0.63296276  0.66662785    -0.56300
O64         O  0.02383419  0.66420589  0.64638543    -0.56300
O65         O  0.06586787  0.66283031  0.64699861    -0.55500
O66         O  0.22649973  0.58404643  0.60204563    -0.56700
C67         C  0.16998979  0.57928584  0.61073891     0.75900
O68         O  0.20604248  0.57342172  0.56267670    -0.57800
C69         C  0.22533302  0.59682732  0.59296563     0.75900
C70         C  0.21605175  0.53993824  0.60249633     0.78300
Cd71       Cd  0.20022709  0.57097142  0.59246548     1.37500
O72         O  0.18351266  0.58694171  0.61336925    -0.56700
O73         O  0.21056358  0.55026045  0.61304335    -0.55500
C74         C  0.19109330  0.57213291  0.55791998     0.78300
O75         O  0.21329960  0.54332701  0.58738855    -0.57900
O76         O  0.17056729  0.56754500  0.60025694    -0.56300
O77         O  0.21195731  0.59846158  0.58480859    -0.56300
O78         O  0.18044077  0.56858063  0.56890871    -0.55500
O79         O  0.33905396  0.42955343  0.62162637    -0.56700
C80         C  0.34679954  0.47016734  0.65345902     0.75900
O81         O  0.29536624  0.45497083  0.65081354    -0.57800
C82         C  0.33071229  0.41617749  0.62232129     0.75900
C83         C  0.32843423  0.42270716  0.67409168     0.78300
Cd84       Cd  0.32385597  0.44336100  0.64527348     1.37500
O85         O  0.33856259  0.46217320  0.66407563    -0.56700
O86         O  0.31599061  0.43249535  0.67341165    -0.55500
C87         C  0.29275043  0.45970774  0.63603708     0.78300
O88         O  0.33798951  0.42243862  0.66163438    -0.57900
O89         O  0.34480031  0.46585231  0.63842419    -0.56300
O90         O  0.31881133  0.41594457  0.63263003    -0.56300
O91         O  0.30390189  0.45612137  0.62555191    -0.55500
O92         O  0.37147941  0.30639287  0.58202310    -0.56700
C93         C  0.40260553  0.26652444  0.59347463     0.75900
O94         O  0.40071653  0.27795614  0.54061148    -0.57800
C95         C  0.37246765  0.31950916  0.57333840     0.75900
C96         C  0.42446815  0.31171426  0.57504372     0.78300
Cd97       Cd  0.39532153  0.29167920  0.56856070     1.37500
O98         O  0.41343890  0.27274296  0.58404153    -0.56700
O99         O  0.42403596  0.30272871  0.56201146    -0.55500
C100        C  0.38627719  0.27176807  0.53920437     0.78300
O101        O  0.41155170  0.31176096  0.58399235    -0.57900
O102        O  0.38782472  0.27181995  0.59163481    -0.56300
O103        O  0.38281759  0.31918009  0.56144742    -0.56300
O104        O  0.37607060  0.27556798  0.55056412    -0.55500
O105        O  0.36763097  0.14822729  0.42530585    -0.56700
C106        C  0.33667959  0.13657201  0.46430367     0.75900
O107        O  0.34010068  0.18955189  0.45569481    -0.57800
C108        C  0.36619684  0.15688450  0.41217364     0.75900
C109        C  0.31497705  0.15894551  0.41989979     0.78300
Cd110      Cd  0.34451885  0.16253041  0.44028519     1.37500
O111        O  0.35171071  0.13914725  0.46030340    -0.56700
O112        O  0.32832353  0.15092155  0.41756514    -0.55500
C113        C  0.35526302  0.19208671  0.45922787     0.78300
O114        O  0.31523873  0.16997025  0.43126152    -0.57900
O115        O  0.32595617  0.14567240  0.45731626    -0.56300
O116        O  0.35588134  0.16885380  0.41262539    -0.56300
O117        O  0.36551729  0.18170366  0.45327402    -0.55500
O118        O  0.39755598  0.11219158  0.30034468    -0.56700
C119        C  0.38632364  0.08206672  0.26218964     0.75900
O120        O  0.43917025  0.08152360  0.27273300    -0.57800
C121        C  0.40635828  0.11200563  0.31347876     0.75900
C122        C  0.40789564  0.05921325  0.30764944     0.78300
Cd123      Cd  0.41205920  0.08831820  0.28697476     1.37500
O124        O  0.39502788  0.07084418  0.26886525    -0.56700
O125        O  0.41836671  0.05909205  0.29587217    -0.55500
C126        C  0.44270722  0.09637549  0.26904755     0.78300
O127        O  0.40046804  0.07282690  0.31038551    -0.57900
O128        O  0.38926548  0.09684142  0.26681557    -0.56300
O129        O  0.41841365  0.10177131  0.31381856    -0.56300
O130        O  0.43275117  0.10738768  0.27432315    -0.55500
O131        O  0.87551707  0.75874210  0.08970846    -0.56700
C132        C  0.86652658  0.81321063  0.07934582     0.75900
O133        O  0.91534100  0.77804824  0.07722192    -0.57800
C134        C  0.88495348  0.76160980  0.10201322     0.75900
C135        C  0.87777036  0.76414521  0.04285402     0.78300
Cd136      Cd  0.88544597  0.78295585  0.07317744     1.37500
O137        O  0.86302286  0.79983789  0.08684435    -0.56700
O138        O  0.86648502  0.77142673  0.05111390    -0.55500
C139        C  0.91978963  0.79297233  0.07511028     0.78300
O140        O  0.89251106  0.76636429  0.04787954    -0.57900
O141        O  0.87777477  0.81226836  0.06838660    -0.56300
O142        O  0.89324079  0.77489645  0.10156390    -0.56300
O143        O  0.90864580  0.80309220  0.07035648    -0.55500
O144        O  0.84065099  0.96091930  0.15728806    -0.56700
C145        C  0.82607114  0.91513142  0.11784010     0.75900
O146        O  0.83832548  0.92262895  0.15516511    -0.57800
C147        C  0.84895501  0.96782485  0.14596935     0.75900
C148        C  0.79303176  0.96315026  0.13255092     0.78300
Cd149      Cd  0.82291332  0.94341267  0.13982203     1.37500
O150        O  0.83524545  0.92783669  0.11610183    -0.56700
O151        O  0.80305538  0.95836107  0.12139777    -0.55500
C152        C  0.82921378  0.92227274  0.16794414     0.78300
O153        O  0.79607737  0.95809363  0.14716425    -0.57900
O154        O  0.81432076  0.91632635  0.12827021    -0.56300
O155        O  0.84541577  0.96362373  0.13116712    -0.56300
O156        O  0.81642220  0.93165866  0.16791726    -0.55500
O157        O  0.12426722  0.14641040  0.55644761    -0.56700
C158        C  0.15301460  0.13768711  0.51534733     0.75900
O159        O  0.15377792  0.18924024  0.52979430    -0.57800
C160        C  0.12424420  0.15571424  0.56922001     0.75900
C161        C  0.17562165  0.15554920  0.56292428     0.78300
Cd162      Cd  0.14705440  0.16140526  0.54213608     1.37500
O163        O  0.13827132  0.14060541  0.52016935    -0.56700
O164        O  0.16290337  0.14635661  0.56271406    -0.55500
C165        C  0.13897196  0.19246570  0.52534070     0.78300
O166        O  0.17527940  0.16830881  0.55365539    -0.57900
O167        O  0.16443395  0.14540015  0.52286098    -0.56300
O168        O  0.13362143  0.16835053  0.56880912    -0.56300
O169        O  0.12806113  0.18192137  0.52933415    -0.55500
O170        O  0.10452511  0.08642485  0.70530743    -0.56700
C171        C  0.08136805  0.11246113  0.66725367     0.75900
O172        O  0.07448815  0.06936698  0.67704091    -0.57800
C173        C  0.10452809  0.09465259  0.71868454     0.75900
C174        C  0.04455499  0.10099525  0.71491461     0.78300
Cd175      Cd  0.07559433  0.09303597  0.69706135     1.37500
O176        O  0.08802562  0.11640264  0.68098033    -0.56700
O177        O  0.05427535  0.11204822  0.70952787    -0.55500
C178        C  0.07999999  0.05877307  0.68733000     0.78300
O179        O  0.04848350  0.08613091  0.71138282    -0.57900
O180        O  0.07141964  0.10030166  0.66751506    -0.56300
O181        O  0.09162977  0.10325391  0.72162870    -0.56300
O182        O  0.08130328  0.06351143  0.70230062    -0.55500
O183        O  0.61582929  0.79975897  0.89375620    -0.56700
C184        C  0.59719904  0.75890571  0.88414388     0.75900
O185        O  0.58934485  0.76979260  0.93752983    -0.57800
C186        C  0.61508393  0.81278792  0.90261420     0.75900
C187        C  0.56108683  0.79359754  0.90732173     0.78300
Cd188      Cd  0.59553576  0.78354185  0.91035736     1.37500
O189        O  0.58840575  0.77188696  0.88267389    -0.56700
O190        O  0.56571478  0.77861212  0.90593548    -0.55500
C191        C  0.60431999  0.76649931  0.94126753     0.78300
O192        O  0.57204498  0.80393754  0.91190724    -0.57900
O193        O  0.60630478  0.75797864  0.89696891    -0.56300
O194        O  0.60602912  0.81206722  0.91544107    -0.56300
O195        O  0.61525100  0.77203565  0.93147681    -0.55500
O196        O  0.63111821  0.95498909  0.83504153    -0.56700
C197        C  0.65289461  0.91495438  0.86353409     0.75900
O198        O  0.66091228  0.92469135  0.82232825    -0.57800
C199        C  0.63044238  0.96796410  0.84389385     0.75900
C200        C  0.68910337  0.96334202  0.85533489     0.78300
Cd201      Cd  0.65895526  0.94545922  0.84499180     1.37500
O202        O  0.64588010  0.92850625  0.86765796    -0.56700
O203        O  0.67857331  0.95785757  0.86557807    -0.55500
C204        C  0.65819685  0.93498772  0.81075556     0.78300
O205        O  0.68640774  0.95985022  0.84022283    -0.57900
O206        O  0.66308727  0.91570274  0.85162290    -0.56300
O207        O  0.64204921  0.96980310  0.85436984    -0.56300
O208        O  0.65785224  0.95023936  0.81477637    -0.55500
O209        O  0.58700017  0.61622488  0.17844106    -0.56700
C210        C  0.60016848  0.58910733  0.21789251     0.75900
O211        O  0.54788493  0.58578919  0.20974763    -0.57800
C212        C  0.57830260  0.61467066  0.16534949     0.75900
C213        C  0.57827387  0.56210498  0.17464411     0.78300
Cd214      Cd  0.57373636  0.59264633  0.19339139     1.37500
O215        O  0.59323272  0.60310188  0.21572045    -0.56700
O216        O  0.58618159  0.57535881  0.17183294    -0.55500
C217        C  0.54355507  0.60073228  0.21244128     0.78300
O218        O  0.56717090  0.56283413  0.18586057    -0.57900
O219        O  0.59534860  0.57745279  0.20859747    -0.56300
O220        O  0.56677900  0.60394873  0.16573996    -0.56300
O221        O  0.55225163  0.61171418  0.20541119    -0.55500
O222        O  0.62056184  0.64516706  0.05509542    -0.56700
C223        C  0.64890779  0.62896485  0.01750462     0.75900
O224        O  0.65068605  0.68369954  0.02440474    -0.57800
C225        C  0.62121288  0.65543663  0.06706872     0.75900
C226        C  0.67362644  0.65400222  0.06010313     0.78300
Cd227      Cd  0.64414758  0.65719574  0.03966278     1.37500
O228        O  0.63452016  0.63505439  0.01964328    -0.56700
O229        O  0.65996722  0.64696482  0.06335040    -0.55500
C230        C  0.63605122  0.68589149  0.01886693     0.78300
O231        O  0.67376259  0.66360113  0.04757308    -0.57900
O232        O  0.66053763  0.63554728  0.02572476    -0.56300
O233        O  0.63147638  0.66728327  0.06573156    -0.56300
O234        O  0.62537053  0.67527682  0.02320053    -0.55500
O235        O  0.46699940  0.66319528  0.33376394    -0.56700
C236        C  0.41952632  0.62041704  0.32671032     0.75900
O237        O  0.42724685  0.66057493  0.33894613    -0.57800
C238        C  0.47216331  0.65397881  0.34537558     0.75900
C239        C  0.46577532  0.63412102  0.29309538     0.78300
Cd240      Cd  0.44632190  0.64418998  0.32224411     1.37500
O241        O  0.43258755  0.61974083  0.33562811    -0.56700
O242        O  0.46334653  0.62461129  0.30534894    -0.55500
C243        C  0.42513470  0.67250349  0.32895193     0.78300
O244        O  0.45852020  0.64817422  0.29366725    -0.57900
O245        O  0.41945315  0.63109783  0.31513941    -0.56300
O246        O  0.46562035  0.63966709  0.34643670    -0.56300
O247        O  0.43266404  0.67152725  0.31507981    -0.55500
O248        O  0.30836491  0.58300745  0.36539075    -0.56700
C249        C  0.27000782  0.59855350  0.38878170     0.75900
O250        O  0.27528793  0.54576540  0.39654097    -0.57800
C251        C  0.32197853  0.57548654  0.36833847     0.75900
C252        C  0.30698125  0.57315125  0.42253946     0.78300
Cd253      Cd  0.29304289  0.57040364  0.38937473     1.37500
O254        O  0.26834009  0.58634772  0.37896385    -0.56700
O255        O  0.31615081  0.57217001  0.40983151    -0.55500
C256        C  0.27532432  0.53914309  0.38225877     0.78300
O257        O  0.29150969  0.57121345  0.42018393    -0.57900
O258        O  0.28288866  0.59845821  0.39778489    -0.56300
O259        O  0.32185783  0.56516496  0.38019024    -0.56300
O260        O  0.28428903  0.54621577  0.37151691    -0.55500
O261        O  0.14340155  0.46176271  0.34686445    -0.56700
C262        C  0.15900001  0.41441970  0.36091569     0.75900
O263        O  0.17065424  0.43651871  0.30855349    -0.57800
C264        C  0.13948120  0.46519334  0.33201023     0.75900
C265        C  0.19657243  0.45996053  0.34936291     0.78300
Cd266      Cd  0.16641689  0.44184309  0.33893962     1.37500
O267        O  0.15046684  0.42774322  0.36127454    -0.56700
O268        O  0.18443777  0.45732807  0.35894055    -0.55500
C269        C  0.16327951  0.42258277  0.30876769     0.78300
O270        O  0.19539333  0.45366691  0.33495538    -0.57900
O271        O  0.17156403  0.41427410  0.35141183    -0.56300
O272        O  0.14787197  0.45804844  0.32083746    -0.56300
O273        O  0.15912110  0.41709862  0.32285302    -0.55500
O274        O  0.09055553  0.27750327  0.38670466    -0.56700
C275        C  0.11884117  0.31615330  0.40718418     0.75900
O276        O  0.07748102  0.31005265  0.41322367    -0.57800
C277        C  0.09865433  0.26404161  0.38704664     0.75900
C278        C  0.10708218  0.27083476  0.44601871     0.78300
Cd279      Cd  0.09848031  0.28747420  0.41461565     1.37500
O280        O  0.12159843  0.30218710  0.40034159    -0.56700
O281        O  0.11797686  0.27697783  0.43656365    -0.55500
C282        C  0.06497382  0.30070998  0.41136262     0.78300
O283        O  0.09208335  0.27318640  0.44168623    -0.57900
O284        O  0.10772117  0.31650801  0.41829630    -0.56300
O285        O  0.10770336  0.26164588  0.39970888    -0.56300
O286        O  0.06756940  0.28522101  0.41284131    -0.55500
O287        O  0.80484884  0.08343931  0.87364513    -0.56700
C288        C  0.76622023  0.09544062  0.90232386     0.75900
O289        O  0.77458530  0.04237612  0.90263252    -0.57800
C290        C  0.81792823  0.07455467  0.87453934     0.75900
C291        C  0.81068363  0.07168790  0.92670757     0.78300
Cd292      Cd  0.79037547  0.06879120  0.89694670     1.37500
O293        O  0.76968932  0.09058896  0.88774764    -0.56700
O294        O  0.81365242  0.07927652  0.91333128    -0.55500
C295        C  0.77195792  0.03862017  0.88756896     0.78300
O296        O  0.79858391  0.06155969  0.92646095    -0.57900
O297        O  0.77377768  0.08817086  0.91398623    -0.56300
O298        O  0.81760955  0.06250666  0.88466766    -0.56300
O299        O  0.77860127  0.04803288  0.87694470    -0.55500
O300        O  0.93072296  0.11341759  0.84082035    -0.56700
C301        C  0.97121122  0.13371894  0.85347080     0.75900
O302        O  0.96258274  0.14340886  0.80050717    -0.57800
C303        C  0.91750335  0.11570226  0.83248259     0.75900
C304        C  0.93607733  0.16964732  0.82987639     0.78300
Cd305      Cd  0.94723010  0.13554338  0.82639902     1.37500
O306        O  0.97289667  0.12497561  0.84046293    -0.56700
O307        O  0.92628114  0.15863482  0.82434310    -0.55500
C308        C  0.96501780  0.12874881  0.79526359     0.78300
O309        O  0.95102025  0.16523286  0.83220402    -0.57900
O310        O  0.95786847  0.14201413  0.85463941    -0.56300
O311        O  0.91830393  0.12632028  0.82094135    -0.56300
O312        O  0.95845866  0.11728028  0.80371775    -0.55500
O313        O  0.11618976  0.17629002  0.89988078    -0.56700
C314        C  0.08440562  0.21567981  0.88910199     0.75900
O315        O  0.07609313  0.16866588  0.90145829    -0.57800
C316        C  0.11460833  0.16270406  0.90774166     0.75900
C317        C  0.10160044  0.20778341  0.94545864     0.78300
Cd318      Cd  0.09252826  0.19068245  0.91426386     1.37500
O319        O  0.07399626  0.20942683  0.89895282    -0.56700
O320        O  0.11235705  0.20358742  0.93475013    -0.55500
C321        C  0.06308575  0.17066670  0.91003229     0.78300
O322        O  0.08678786  0.20349972  0.94229644    -0.57900
O323        O  0.09935250  0.21081261  0.89080985    -0.56300
O324        O  0.10397301  0.16260030  0.91936353    -0.56300
O325        O  0.06370816  0.18150863  0.92152266    -0.55500
O326        O  0.15004237  0.05331109  0.86135254    -0.56700
C327        C  0.13850921  0.01458947  0.83190231     0.75900
O328        O  0.17185863  0.04586251  0.80915197    -0.57800
C329        C  0.15936922  0.06601566  0.86145050     0.75900
C330        C  0.19509231  0.01974500  0.84843071     0.78300
Cd331      Cd  0.16508147  0.03845697  0.83872628     1.37500
O332        O  0.14248122  0.01814763  0.84673412    -0.56700
O333        O  0.18381209  0.02375104  0.85863012    -0.55500
C334        C  0.16234733  0.05851757  0.80909970     0.78300
O335        O  0.19309745  0.02491157  0.83370392    -0.57900
O336        O  0.14648769  0.02200599  0.82069495    -0.56300
O337        O  0.17198458  0.06548922  0.85200902    -0.56300
O338        O  0.15534499  0.06216258  0.82268454    -0.55500
O339        O  0.59617789  0.88521390  0.71377526    -0.56700
C340        C  0.57789423  0.87156512  0.66598223     0.75900
O341        O  0.54399322  0.89709902  0.70746646    -0.57800
C342        C  0.59771719  0.89972332  0.71977080     0.75900
C343        C  0.57651723  0.92396112  0.67616198     0.78300
Cd344      Cd  0.57244628  0.89325441  0.69456179     1.37500
O345        O  0.58678508  0.87030427  0.67899713    -0.56700
O346        O  0.58509287  0.91099309  0.67361327    -0.55500
C347        C  0.54276210  0.88232534  0.71275081     0.78300
O348        O  0.56498384  0.92284221  0.68688179    -0.57900
O349        O  0.56594833  0.88190197  0.66660425    -0.56300
O350        O  0.58777440  0.91059633  0.71433386    -0.56300
O351        O  0.55459215  0.87261460  0.70898668    -0.55500
O352        O  0.61858276  0.84008036  0.55300380    -0.56700
C353        C  0.64797938  0.85036497  0.51260079     0.75900
O354        O  0.67185124  0.81935701  0.54637468    -0.57800
C355        C  0.61905407  0.83091065  0.56581909     0.75900
C356        C  0.63393145  0.79488096  0.52114500     0.78300
Cd357      Cd  0.64217363  0.82570298  0.53842377     1.37500
O358        O  0.63322324  0.84678564  0.51677056    -0.56700
O359        O  0.62348176  0.80644543  0.52345842    -0.55500
C360        C  0.67234717  0.83064972  0.55743032     0.78300
O361        O  0.64826361  0.79706687  0.52733631    -0.57900
O362        O  0.65943637  0.84286386  0.52028035    -0.56300
O363        O  0.62929284  0.81888672  0.56547689    -0.56300
O364        O  0.65898299  0.83858962  0.56005989    -0.55500
O365        O  0.43116527  0.86083105  0.83391051    -0.56700
C366        C  0.47068601  0.82856203  0.84547455     0.75900
O367        O  0.43423664  0.80863444  0.81467231    -0.57800
C368        C  0.41851884  0.85979652  0.82444821     0.75900
C369        C  0.46467764  0.84761035  0.79158307     0.78300
Cd370      Cd  0.44596330  0.83708723  0.82081149     1.37500
O371        O  0.46416060  0.84296331  0.84566309    -0.56700
O372        O  0.46119886  0.85731019  0.80350014    -0.55500
C373        C  0.42506759  0.80881233  0.82754767     0.78300
O374        O  0.45906947  0.83291780  0.79265962    -0.57900
O375        O  0.46626380  0.81897953  0.83383162    -0.56300
O376        O  0.41931071  0.84938657  0.81259238    -0.56300
O377        O  0.42527409  0.82191764  0.83624243    -0.55500
O378        O  0.30544808  0.89137485  0.86322512    -0.56700
C379        C  0.26552114  0.87826302  0.88530180     0.75900
O380        O  0.31167728  0.90369736  0.90645748    -0.57800
C381        C  0.31820667  0.90047825  0.86487878     0.75900
C382        C  0.27179122  0.93673229  0.87692790     0.78300
Cd383      Cd  0.28908848  0.90569745  0.88552435     1.37500
O384        O  0.27929384  0.87729044  0.89283562    -0.56700
O385        O  0.27775547  0.92708499  0.86598751    -0.55500
C386        C  0.30239112  0.90412728  0.91910488     0.78300
O387        O  0.27438708  0.93258166  0.89188157    -0.57900
O388        O  0.26311515  0.89125829  0.87679807    -0.56300
O389        O  0.31703619  0.91243677  0.87507684    -0.56300
O390        O  0.28702304  0.90660492  0.91644184    -0.55500
O391        O  0.62033220  0.68212463  0.39690801    -0.56700
C392        C  0.60162059  0.72450890  0.38320601     0.75900
O393        O  0.56907450  0.70689313  0.40148196    -0.57800
C394        C  0.61545240  0.66872509  0.40355246     0.75900
C395        C  0.60679050  0.71569742  0.44121281     0.78300
Cd396      Cd  0.59797709  0.70010844  0.40956795     1.37500
O397        O  0.60709818  0.72708218  0.39773837    -0.56700
O398        O  0.61766898  0.71059211  0.43104410    -0.55500
C399        C  0.56301686  0.69283601  0.40495865     0.78300
O400        O  0.59178299  0.71283387  0.43734865    -0.57900
O401        O  0.59581287  0.71016456  0.38035435    -0.56300
O402        O  0.60323477  0.66996948  0.41333993    -0.56300
O403        O  0.57262543  0.68264475  0.41218875    -0.55500
O404        O  0.64067443  0.55211524  0.36636169    -0.56700
C405        C  0.62930084  0.51133624  0.34436701     0.75900
O406        O  0.65113982  0.55944190  0.32505186    -0.57800
C407        C  0.65034638  0.56454708  0.36589425     0.75900
C408        C  0.68659232  0.51852377  0.35156345     0.78300
Cd409      Cd  0.65557127  0.53610578  0.34435468     1.37500
O410        O  0.62812467  0.52456963  0.33601800    -0.56700
O411        O  0.67764351  0.52475081  0.36292043    -0.55500
C412        C  0.65325814  0.55128507  0.31179245     0.78300
O413        O  0.68195909  0.52135260  0.33677649    -0.57900
O414        O  0.64187197  0.51007591  0.35374935    -0.56300
O415        O  0.66298627  0.56323141  0.35660308    -0.56300
O416        O  0.65760276  0.53619759  0.31338782    -0.55500
O417        O  0.08545421  0.36828296  0.18114260    -0.56700
C418        C  0.10102400  0.38935960  0.21929129     0.75900
O419        O  0.07350728  0.41107060  0.17482953    -0.57800
C420        C  0.07719774  0.37083989  0.16792550     0.75900
C421        C  0.04198321  0.38443423  0.21694135     0.78300
Cd422      Cd  0.07214062  0.39081219  0.19759409     1.37500
O423        O  0.09991329  0.39911648  0.20708275    -0.56700
O424        O  0.04914712  0.37316435  0.20856482    -0.55500
C425        C  0.07442316  0.42388207  0.18391793     0.78300
O426        O  0.04792196  0.39890763  0.21555592    -0.57900
O427        O  0.08924517  0.37912404  0.22105450    -0.56300
O428        O  0.06558669  0.38150851  0.16882122    -0.56300
O429        O  0.07279960  0.42169389  0.19941160    -0.55500
O430        O  0.11581542  0.33665792  0.05324869    -0.56700
C431        C  0.14726033  0.34440372  0.01338127     0.75900
O432        O  0.16779672  0.31302858  0.04946152    -0.57800
C433        C  0.11708885  0.32897627  0.06697650     0.75900
C434        C  0.12906498  0.28894239  0.02383791     0.78300
Cd435      Cd  0.13897729  0.32061265  0.03948493     1.37500
O436        O  0.15787888  0.33578339  0.02110592    -0.56700
O437        O  0.11869961  0.30040214  0.02702238    -0.55500
C438        C  0.16845535  0.32510837  0.05966285     0.78300
O439        O  0.14389565  0.29161296  0.02846271    -0.57900
O440        O  0.13217379  0.34208258  0.01732330    -0.56300
O441        O  0.12715255  0.31681011  0.06733749    -0.56300
O442        O  0.15558675  0.33411459  0.06081996    -0.55500
O443        O  0.93029223  0.36705184  0.34000336    -0.56700
C444        C  0.97147406  0.33658304  0.35373393     0.75900
O445        O  0.93659138  0.31506723  0.32043287    -0.57800
C446        C  0.91790305  0.36505873  0.33036538     0.75900
C447        C  0.96551414  0.35352453  0.29869985     0.78300
Cd448      Cd  0.94674300  0.34355676  0.32807451     1.37500
O449        O  0.96628234  0.35135862  0.35163948    -0.56700
O450        O  0.96199723  0.36359029  0.31028322    -0.55500
C451        C  0.92691045  0.31423115  0.33289162     0.78300
O452        O  0.96005837  0.33883293  0.30031326    -0.57900
O453        O  0.96538420  0.32567933  0.34421641    -0.56300
O454        O  0.91939107  0.35407533  0.31914922    -0.56300
O455        O  0.92638414  0.32678912  0.34239654    -0.55500
O456        O  0.80278414  0.39592722  0.36343693    -0.56700
C457        C  0.76333560  0.38084610  0.38699986     0.75900
O458        O  0.78261362  0.40705331  0.41681100    -0.57800
C459        C  0.81560856  0.40470558  0.36610342     0.75900
C460        C  0.76732146  0.43904585  0.37886010     0.78300
Cd461      Cd  0.78598932  0.40883738  0.38640147     1.37500
O462        O  0.77733676  0.38020770  0.39416555    -0.56700
O463        O  0.77218657  0.42911308  0.36765590    -0.55500
C464        C  0.79805579  0.40642116  0.41992298     0.78300
O465        O  0.77191274  0.43572239  0.39354846    -0.57900
O466        O  0.76053650  0.39354665  0.37817440    -0.56300
O467        O  0.81429761  0.41583113  0.37717616    -0.56300
O468        O  0.80782277  0.40873845  0.40784748    -0.55500
O469        O  0.30748969  0.08555326  0.61209342    -0.56700
C470        C  0.26821484  0.09806669  0.59421070     0.75900
O471        O  0.31186650  0.06925612  0.56627107    -0.57800
C472        C  0.32068466  0.07703849  0.61049196     0.75900
C473        C  0.27371280  0.04026020  0.59710500     0.78300
Cd474      Cd  0.29165032  0.07113932  0.58986547     1.37500
O475        O  0.28182385  0.10021446  0.58666411    -0.56700
O476        O  0.28207249  0.04776821  0.60812296    -0.55500
C477        C  0.30220583  0.07572190  0.55560942     0.78300
O478        O  0.27450574  0.04623590  0.58258779    -0.57900
O479        O  0.26603244  0.08398610  0.60080381    -0.56300
O480        O  0.32030022  0.06535969  0.59990279    -0.56300
O481        O  0.28744414  0.07851843  0.56029229    -0.55500
O482        O  0.43219749  0.11697438  0.64406525    -0.56700
C483        C  0.47192434  0.13709813  0.63027949     0.75900
O484        O  0.45155610  0.17049609  0.65465384    -0.57800
C485        C  0.41930361  0.11915512  0.65289244     0.75900
C486        C  0.46590478  0.13179365  0.68827454     0.78300
Cd487      Cd  0.44839463  0.13975369  0.65738445     1.37500
O488        O  0.47443420  0.12981717  0.64397050    -0.56700
O489        O  0.45773418  0.12098265  0.68028553    -0.55500
C490        C  0.43616509  0.17366424  0.65331002     0.78300
O491        O  0.46512230  0.14650699  0.68274716    -0.57900
O492        O  0.45798162  0.14420109  0.62852968    -0.56300
O493        O  0.42022615  0.13006596  0.66423596    -0.56300
O494        O  0.42639957  0.16158943  0.65557040    -0.55500
O495        O  0.58491536  0.11487896  0.80869020    -0.56700
C496        C  0.59662817  0.08474138  0.77221546     0.75900
O497        O  0.56459028  0.06214360  0.79818737    -0.57800
C498        C  0.57556512  0.11561226  0.82134825     0.75900
C499        C  0.54105626  0.10305680  0.77309448     0.78300
Cd500      Cd  0.56914616  0.09262567  0.79427319     1.37500
O501        O  0.59346553  0.09976800  0.77581599    -0.56700
O502        O  0.55381336  0.11186911  0.77553199    -0.55500
C503        C  0.57137493  0.06159477  0.81242480     0.78300
O504        O  0.54045259  0.08959916  0.78122643    -0.57900
O505        O  0.58754317  0.07396414  0.77895170    -0.56300
O506        O  0.56263981  0.10658799  0.82106577    -0.56300
O507        O  0.57509089  0.07542857  0.81896678    -0.55500
O508        O  0.65261816  0.13564282  0.95357439    -0.56700
C509        C  0.62313936  0.15929713  0.91688942     0.75900
O510        O  0.64906168  0.19024972  0.96206573    -0.57800
C511        C  0.64500975  0.13562600  0.96727659     0.75900
C512        C  0.67782081  0.16221511  0.93376029     0.78300
Cd513      Cd  0.64403588  0.16430645  0.94561424     1.37500
O514        O  0.62066346  0.15145817  0.93029848    -0.56700
O515        O  0.67466041  0.16412992  0.94907211    -0.55500
C516        C  0.63386274  0.19390755  0.96423426     0.78300
O517        O  0.66567555  0.16366569  0.92381860    -0.57900
O518        O  0.63474012  0.16992413  0.91698052    -0.56300
O519        O  0.63582702  0.14807608  0.97025460    -0.56300
O520        O  0.62344714  0.18474516  0.95686605    -0.55500
O521        O  0.12034748  0.80382929  0.58163162    -0.56700
C522        C  0.09913121  0.76633575  0.59900924     0.75900
O523        O  0.06687861  0.78435213  0.57437744    -0.57800
C524        C  0.11674985  0.81725091  0.57414365     0.75900
C525        C  0.10474045  0.76801619  0.54003563     0.78300
Cd526      Cd  0.09693752  0.78754362  0.56980709     1.37500
O527        O  0.09068407  0.77963212  0.59899542    -0.56700
O528        O  0.11462373  0.77896584  0.54547110    -0.55500
C529        C  0.06304267  0.79942555  0.57201003     0.78300
O530        O  0.09094319  0.76692885  0.54746065    -0.57900
O531        O  0.10789886  0.76360042  0.58623390    -0.56300
O532        O  0.10458691  0.81673559  0.56414678    -0.56300
O533        O  0.07448054  0.80879401  0.56675151    -0.55500
O534        O  0.14942790  0.92941450  0.61648594    -0.56700
C535        C  0.14228622  0.96892214  0.64880246     0.75900
O536        O  0.17369226  0.93140288  0.66770378    -0.57800
C537        C  0.15835055  0.91635116  0.61598329     0.75900
C538        C  0.19510704  0.96057527  0.62840092     0.78300
Cd539      Cd  0.16544496  0.94267829  0.63956507     1.37500
O540        O  0.14159589  0.96237559  0.63447005    -0.56700
O541        O  0.18215652  0.95921282  0.61954495    -0.55500
C542        C  0.16138913  0.92156112  0.66849380     0.78300
O543        O  0.19493072  0.95293560  0.64216753    -0.57900
O544        O  0.15345304  0.96346744  0.65843697    -0.56300
O545        O  0.17105370  0.91607537  0.62535437    -0.56300
O546        O  0.15172384  0.92135331  0.65608009    -0.55500
O547        O  0.08717683  0.61346025  0.30528446    -0.56700
C548        C  0.10236174  0.59223055  0.26681678     0.75900
O549        O  0.07243161  0.56723182  0.31056762    -0.57800
C550        C  0.08114744  0.60956238  0.31928957     0.75900
C551        C  0.04261890  0.59791616  0.27246929     0.78300
Cd552      Cd  0.07420436  0.58991997  0.28960652     1.37500
O553        O  0.10288693  0.58318747  0.27961939    -0.56700
O554        O  0.04957271  0.60823397  0.28210083    -0.55500
C555        C  0.07643715  0.55565149  0.30064746     0.78300
O556        O  0.04953015  0.58378607  0.27152366    -0.57900
O557        O  0.08947111  0.60118206  0.26513244    -0.56300
O558        O  0.07146495  0.59719572  0.31945401    -0.56300
O559        O  0.07774641  0.55957058  0.28549211    -0.55500
O560        O  0.12509959  0.64307815  0.43045656    -0.56700
C561        C  0.15872858  0.63154088  0.46606559     0.75900
O562        O  0.17767512  0.66592937  0.43634123    -0.57800
C563        C  0.12473355  0.65211115  0.41755692     0.75900
C564        C  0.13736594  0.68562254  0.46416312     0.78300
Cd565      Cd  0.14869800  0.65781165  0.44369898     1.37500
O566        O  0.14435922  0.63148664  0.45955747    -0.56700
O567        O  0.13029495  0.67160534  0.46411536    -0.55500
C568        C  0.17844035  0.65631218  0.42382838     0.78300
O569        O  0.14956623  0.68722052  0.45435511    -0.57900
O570        O  0.16809983  0.64350688  0.46228982    -0.56300
O571        O  0.13447543  0.66446816  0.41734618    -0.56300
O572        O  0.16529017  0.64861659  0.41998369    -0.55500
O573        O  0.61246188  0.30326860  0.08944572    -0.56700
C574        C  0.58233866  0.26431460  0.10109603     0.75900
O575        O  0.57374735  0.31212069  0.08504480    -0.57800
C576        C  0.61217960  0.31582735  0.07989587     0.75900
C577        C  0.59901427  0.26976974  0.04543228     0.78300
Cd578      Cd  0.58957171  0.28832320  0.07511095     1.37500
O579        O  0.57156984  0.27026256  0.09135108    -0.56700
O580        O  0.60921234  0.27304660  0.05695294    -0.55500
C581        C  0.56010062  0.30856507  0.07808339     0.78300
O582        O  0.58446107  0.27563000  0.04708979    -0.57900
O583        O  0.59714183  0.26934680  0.09914817    -0.56300
O584        O  0.60234943  0.31514898  0.06756932    -0.56300
O585        O  0.56002918  0.29587431  0.06867712    -0.55500
O586        O  0.64687502  0.42920899  0.11634714    -0.56700
C587        C  0.63260674  0.46793891  0.13914211     0.75900
O588        O  0.65799137  0.42148949  0.16092449    -0.57800
C589        C  0.65483509  0.41575448  0.11865478     0.75900
C590        C  0.69134559  0.46130343  0.13327226     0.78300
Cd591      Cd  0.65994321  0.44419089  0.14028337     1.37500
O592        O  0.63082769  0.45367824  0.14543283    -0.56700
O593        O  0.68173337  0.45606554  0.12197021    -0.55500
C594        C  0.65596797  0.43078250  0.17345693     0.78300
O595        O  0.68715243  0.45786949  0.14804002    -0.57900
O596        O  0.64645013  0.47078273  0.13230812    -0.56300
O597        O  0.66578345  0.41589677  0.12998100    -0.56300
O598        O  0.65728282  0.44628793  0.17102417    -0.55500
O599        O  0.93050228  0.62004977  0.14923605    -0.56700
C600        C  0.96668954  0.65169527  0.13718998     0.75900
O601        O  0.93908855  0.67359655  0.16934373    -0.57800
C602        C  0.91715982  0.62076500  0.15762509     0.75900
C603        C  0.96346572  0.63255829  0.19408830     0.78300
Cd604      Cd  0.94446587  0.64331414  0.16445954     1.37500
O605        O  0.96218226  0.63678311  0.13940282    -0.56700
O606        O  0.96329367  0.62454754  0.18056067    -0.55500
C607        C  0.92511322  0.67357576  0.16193378     0.78300
O608        O  0.95458717  0.64562129  0.19442244    -0.57900
O609        O  0.96120327  0.66224963  0.14745634    -0.56300
O610        O  0.91704356  0.63076053  0.16983405    -0.56300
O611        O  0.91967399  0.65960950  0.15722263    -0.55500
O612        O  0.80562599  0.58414892  0.11612883    -0.56700
C613        C  0.76559598  0.59731354  0.09548074     0.75900
O614        O  0.78393555  0.57383306  0.06408285    -0.57800
C615        C  0.81929913  0.57689973  0.11299189     0.75900
C616        C  0.77236097  0.53876630  0.10341654     0.78300
Cd617      Cd  0.78917180  0.56970519  0.09405593     1.37500
O618        O  0.77978284  0.59879384  0.08887798    -0.56700
O619        O  0.77779169  0.54886675  0.11419855    -0.55500
C620        C  0.79879796  0.57147009  0.05941441     0.78300
O621        O  0.77558792  0.54227164  0.08843908    -0.57900
O622        O  0.76263651  0.58353290  0.10239889    -0.56300
O623        O  0.81889031  0.56574228  0.10188376    -0.56300
O624        O  0.80901966  0.56681339  0.07046427    -0.55500
O625        O  0.80406467  0.89904176  0.61741854    -0.56700
C626        C  0.76390654  0.88798360  0.59544846     0.75900
O627        O  0.77586800  0.94260154  0.58994028    -0.57800
C628        C  0.81746827  0.90708405  0.61550098     0.75900
C629        C  0.79896197  0.91180142  0.56159939     0.78300
Cd630      Cd  0.78821292  0.91456639  0.59567447     1.37500
O631        O  0.77827666  0.88587963  0.58942798    -0.56700
O632        O  0.78370282  0.91222837  0.56543066    -0.55500
C633        C  0.77202557  0.94596634  0.60483466     0.78300
O634        O  0.80925559  0.91454875  0.57320334    -0.57900
O635        O  0.76127395  0.90169493  0.60276383    -0.56300
O636        O  0.81697332  0.91912821  0.60542985    -0.56300
O637        O  0.77647517  0.93541407  0.61562170    -0.55500
O638        O  0.96507425  0.85035017  0.63117403    -0.56700
C639        C  0.91928017  0.86568547  0.65239068     0.75900
O640        O  0.93594098  0.81561836  0.66405101    -0.57800
C641        C  0.97120194  0.83580762  0.63047328     0.75900
C642        C  0.96789794  0.85420017  0.68395819     0.78300
Cd643      Cd  0.94726955  0.84370166  0.65590876     1.37500
O644        O  0.93219751  0.86754324  0.64352784    -0.56700
O645        O  0.96382168  0.86408804  0.67243215    -0.55500
C646        C  0.92710213  0.81436309  0.65095786     0.78300
O647        O  0.96175236  0.83971517  0.68314783    -0.57900
O648        O  0.91998423  0.85480109  0.66372914    -0.56300
O649        O  0.96641895  0.82562563  0.64135791    -0.56300
O650        O  0.92744892  0.82650094  0.64101173    -0.55500
O651        O  0.59872713  0.21362725  0.59390324    -0.56700
C652        C  0.61559553  0.16789803  0.57938778     0.75900
O653        O  0.56268423  0.18703500  0.56417602    -0.57800
C654        C  0.58370213  0.21797572  0.59591204     0.75900
C655        C  0.60338417  0.21189811  0.54092873     0.78300
Cd656      Cd  0.59244162  0.19389752  0.57050522     1.37500
O657        O  0.61428364  0.18104019  0.58805734    -0.56700
O658        O  0.61229198  0.21030446  0.55378708    -0.55500
C659        C  0.56279949  0.17383630  0.57279191     0.78300
O660        O  0.58948706  0.20452539  0.54114328    -0.57900
O661        O  0.60729540  0.16738759  0.56596857    -0.56300
O662        O  0.57317509  0.21138063  0.58631921    -0.56300
O663        O  0.57665645  0.16939772  0.57879690    -0.55500
O664        O  0.63199313  0.03074762  0.64984662    -0.56700
C665        C  0.65459536  0.07005354  0.62738323     0.75900
O666        O  0.66250125  0.06062366  0.67002590    -0.57800
C667        C  0.63451820  0.01625890  0.64423127     0.75900
C668        C  0.69336211  0.02515872  0.63703335     0.78300
Cd669      Cd  0.66146070  0.04037199  0.64670502     1.37500
O670        O  0.64866885  0.05605176  0.62323434    -0.56700
O671        O  0.68306368  0.03060068  0.62644729    -0.55500
C672        C  0.65775671  0.05057642  0.68110763     0.78300
O673        O  0.68955643  0.02754802  0.65213105    -0.57900
O674        O  0.66405381  0.07023134  0.63995452    -0.56300
O675        O  0.64902268  0.01326771  0.63887687    -0.56300
O676        O  0.65646768  0.03548719  0.67677151    -0.55500
O677        O  0.14209403  0.55345743  0.12090571    -0.56700
C678        C  0.13111302  0.51648056  0.14896742     0.75900
O679        O  0.18477068  0.52401534  0.15005073    -0.57800
C680        C  0.15160511  0.56595977  0.11989561     0.75900
C681        C  0.15785300  0.55879425  0.17367325     0.78300
Cd682      Cd  0.15838698  0.53946610  0.14323126     1.37500
O683        O  0.13890018  0.51632680  0.13531781    -0.56700
O684        O  0.15149410  0.56392752  0.16024704    -0.55500
C685        C  0.18853514  0.52022009  0.13524915     0.78300
O686        O  0.16592786  0.54521561  0.17292718    -0.57900
O687        O  0.13551033  0.52735724  0.15937372    -0.56300
O688        O  0.16482111  0.56551760  0.12853033    -0.56300
O689        O  0.17898833  0.52591282  0.12409860    -0.55500
O690        O  0.08624644  0.70359407  0.09891030    -0.56700
C691        C  0.10955400  0.66454860  0.07593900     0.75900
O692        O  0.06719276  0.67433930  0.06866815    -0.57800
C693        C  0.09208979  0.71802807  0.09698945     0.75900
C694        C  0.09913334  0.71078225  0.03835299     0.78300
Cd695      Cd  0.09053536  0.69452334  0.06974273     1.37500
O696        O  0.11356195  0.67817064  0.08281450    -0.56700
O697        O  0.11007690  0.70455692  0.04781984    -0.55500
C698        C  0.05623950  0.68446692  0.07381422     0.78300
O699        O  0.08414941  0.70875617  0.04276696    -0.57900
O700        O  0.09769652  0.66510548  0.06558483    -0.56300
O701        O  0.09878553  0.72103110  0.08311142    -0.56300
O702        O  0.06066428  0.69948246  0.07528133    -0.55500
O703        O  0.63054694  0.34205748  0.46934962    -0.56700
C704        C  0.61774157  0.32776265  0.41821012     0.75900
O705        O  0.67052842  0.31737794  0.43887000    -0.57800
C706        C  0.64384021  0.35045941  0.46965902     0.75900
C707        C  0.63314673  0.29260309  0.46332308     0.78300
Cd708      Cd  0.64041108  0.32351348  0.44569572     1.37500
O709        O  0.61646573  0.33696622  0.43099937    -0.56700
O710        O  0.62207349  0.30085821  0.45575270    -0.55500
C711        C  0.67065317  0.32706686  0.42642357     0.78300
O712        O  0.64787535  0.29805871  0.46222969    -0.57900
O713        O  0.62844062  0.31616448  0.41881822    -0.56300
O714        O  0.65458607  0.34675555  0.45887792    -0.56300
O715        O  0.65695844  0.33388563  0.42267211    -0.55500
O716        O  0.58523217  0.36304427  0.30529689    -0.56700
C717        C  0.59833387  0.39196161  0.26467078     0.75900
O718        O  0.54431915  0.39071393  0.27616215    -0.57800
C719        C  0.57576374  0.36495741  0.31778109     0.75900
C720        C  0.57728982  0.41612288  0.30782777     0.78300
Cd721      Cd  0.57240681  0.38602447  0.28907184     1.37500
O722        O  0.59455062  0.37715984  0.26847889    -0.56700
O723        O  0.58550365  0.40288316  0.31023777    -0.55500
C724        C  0.54271927  0.37593985  0.27085863     0.78300
O725        O  0.56574544  0.41552945  0.29699032    -0.57900
O726        O  0.59040824  0.40333986  0.27202796    -0.56300
O727        O  0.56415737  0.37557981  0.31641284    -0.56300
O728        O  0.55438675  0.36594919  0.27437200    -0.55500
O729        O  0.47005732  0.35136093  0.14668943    -0.56700
C730        C  0.41551763  0.36082497  0.15555708     0.75900
O731        O  0.44809209  0.31032183  0.15712261    -0.57800
C732        C  0.46771559  0.34334909  0.13334523     0.75900
C733        C  0.46269825  0.34753352  0.19174925     0.78300
Cd734      Cd  0.44489597  0.34060165  0.16096888     1.37500
O735        O  0.42876968  0.36352938  0.14748172    -0.56700
O736        O  0.45427846  0.35856045  0.18429090    -0.55500
C737        C  0.43280099  0.30686516  0.15854262     0.78300
O738        O  0.46216178  0.33304132  0.18564313    -0.57900
O739        O  0.41620934  0.34960413  0.16652136    -0.56300
O740        O  0.45433767  0.33518157  0.13229946    -0.56300
O741        O  0.42319809  0.31872704  0.16247180    -0.55500
O742        O  0.25764967  0.39396285  0.10717698    -0.56700
C743        C  0.31305447  0.40113395  0.11950900     0.75900
O744        O  0.28125076  0.40502582  0.06792559    -0.57800
C745        C  0.25992824  0.38036516  0.09956391     0.75900
C746        C  0.26677705  0.43834865  0.10700849     0.78300
Cd747      Cd  0.28406453  0.40720396  0.09874352     1.37500
O748        O  0.30010112  0.39226996  0.12078568    -0.56700
O749        O  0.27029805  0.43445692  0.09215604    -0.55500
C750        C  0.29673832  0.40474470  0.06499338     0.78300
O751        O  0.27201589  0.42848955  0.11808697    -0.57900
O752        O  0.31218845  0.41330645  0.10961638    -0.56300
O753        O  0.27391058  0.37848376  0.09262266    -0.56300
O754        O  0.30623715  0.40700189  0.07733189    -0.55500
O755        O  0.10848082  0.89330392  0.77336334    -0.56700
C756        C  0.08324866  0.86707726  0.81221142     0.75900
O757        O  0.08141536  0.90909005  0.80451158    -0.57800
C758        C  0.10796925  0.88432076  0.76047056     0.75900
C759        C  0.04936522  0.88042715  0.76346583     0.78300
Cd760      Cd  0.07966017  0.88736738  0.78263477     1.37500
O761        O  0.09210651  0.86446605  0.79945113    -0.56700
O762        O  0.05778496  0.86910345  0.77046273    -0.55500
C763        C  0.08289001  0.92130683  0.79476819     0.78300
O764        O  0.05410582  0.89517929  0.76617994    -0.57900
O765        O  0.07206950  0.87815801  0.81092720    -0.56300
O766        O  0.09499184  0.87571023  0.75846673    -0.56300
O767        O  0.08157776  0.91814583  0.77938289    -0.55500
O768        O  0.12178536  0.83366587  0.92517009    -0.56700
C769        C  0.14890052  0.84415416  0.96545845     0.75900
O770        O  0.14762632  0.78952038  0.95339618    -0.57800
C771        C  0.12219914  0.82428372  0.91246799     0.75900
C772        C  0.17400180  0.82146323  0.92278504     0.78300
Cd773      Cd  0.14327252  0.81801530  0.94101355     1.37500
O774        O  0.13418640  0.84009570  0.96153002    -0.56700
O775        O  0.16042519  0.82805950  0.91831043    -0.55500
C776        C  0.13292152  0.78796250  0.95883764     0.78300
O777        O  0.17347730  0.81193597  0.93534558    -0.57900
O778        O  0.16043835  0.83632743  0.95822421    -0.56300
O779        O  0.13121301  0.81133833  0.91350285    -0.56300
O780        O  0.12298455  0.79970904  0.95546242    -0.55500
O781        O  0.17448981  0.89326714  0.11309302    -0.56700
C782        C  0.21353975  0.88041387  0.09203794     0.75900
O783        O  0.16851929  0.90774761  0.06987917    -0.57800
C784        C  0.16177159  0.90260472  0.11233818     0.75900
C785        C  0.20908943  0.93844712  0.10048290     0.78300
Cd786      Cd  0.19060500  0.90832151  0.09158675     1.37500
O787        O  0.20064984  0.88043437  0.08303141    -0.56700
O788        O  0.20345935  0.92851130  0.11122209    -0.55500
C789        C  0.17842714  0.90587492  0.05779484     0.78300
O790        O  0.20538204  0.93522198  0.08551580    -0.57900
O791        O  0.21530802  0.89268216  0.10173300    -0.56300
O792        O  0.16268435  0.91501241  0.10272170    -0.56300
O793        O  0.19380973  0.90700926  0.06106235    -0.55500
O794        O  0.04941799  0.86362312  0.14594664    -0.56700
C795        C  0.00965240  0.83240786  0.13429745     0.75900
O796        O  0.04262760  0.81032479  0.16422502    -0.57800
C797        C  0.06253587  0.86174545  0.15461054     0.75900
C798        C  0.01718554  0.84955709  0.19008178     0.78300
Cd799      Cd  0.03441055  0.84005795  0.15938917     1.37500
O800        O  0.01462909  0.84729670  0.13584972    -0.56700
O801        O  0.01886085  0.85931831  0.17789852    -0.55500
C802        C  0.05375510  0.81048343  0.15302472     0.78300
O803        O  0.02393604  0.83536064  0.18855747    -0.57900
O804        O  0.01567858  0.82195463  0.14429841    -0.56300
O805        O  0.06197536  0.85103323  0.16612114    -0.56300
O806        O  0.05632483  0.82422941  0.14590663    -0.55500
O807        O  0.86993261  0.68152139  0.58150945    -0.56700
C808        C  0.88861217  0.72257570  0.59570994     0.75900
O809        O  0.91801813  0.68030853  0.56699138    -0.57800
C810        C  0.87455813  0.66787500  0.57505785     0.75900
C811        C  0.88305172  0.71461410  0.53794687     0.78300
Cd812      Cd  0.89270229  0.69849119  0.56914691     1.37500
O813        O  0.89518051  0.70850649  0.59835116    -0.56700
O814        O  0.87274669  0.70669286  0.54669777    -0.55500
C815        C  0.92776334  0.69056954  0.57390456     0.78300
O816        O  0.89807180  0.71407788  0.54277033    -0.57900
O817        O  0.88243287  0.72483289  0.58141260    -0.56300
O818        O  0.88711685  0.66845256  0.56561739    -0.56300
O819        O  0.92184060  0.70487311  0.57685224    -0.55500
O820        O  0.84047289  0.52406878  0.65663788    -0.56700
C821        C  0.83045502  0.56920316  0.61523696     0.75900
O822        O  0.79573667  0.53117480  0.64093695    -0.57800
C823        C  0.85011955  0.51762847  0.64605765     0.75900
C824        C  0.82892057  0.56212988  0.66708226     0.78300
Cd825      Cd  0.82478609  0.54201682  0.63777140     1.37500
O826        O  0.83972228  0.55638653  0.61518173    -0.56700
O827        O  0.81768765  0.55103948  0.66690442    -0.55500
C828        C  0.79555838  0.52331832  0.62724836     0.78300
O829        O  0.83699885  0.56417249  0.65378867    -0.57900
O830        O  0.81779121  0.56882853  0.62460662    -0.56300
O831        O  0.84827989  0.52233419  0.63114112    -0.56300
O832        O  0.80839046  0.52466119  0.61830074    -0.55500
O833        O  0.85907570  0.83943437  0.42990625    -0.56700
C834        C  0.82888199  0.84940931  0.46953088     0.75900
O835        O  0.80812518  0.81739022  0.43313382    -0.57800
C836        C  0.86027855  0.82918579  0.41793229     0.75900
C837        C  0.84553971  0.79424275  0.46229015     0.78300
Cd838      Cd  0.83639035  0.82440388  0.44431541     1.37500
O839        O  0.84380847  0.84630680  0.46547179    -0.56700
O840        O  0.85561609  0.80588905  0.45932874    -0.55500
C841        C  0.80843444  0.82886933  0.42231881     0.78300
O842        O  0.83090731  0.79605007  0.45660141    -0.57900
O843        O  0.81780526  0.84114678  0.46207112    -0.56300
O844        O  0.85149555  0.81615533  0.41885572    -0.56300
O845        O  0.82159160  0.83738647  0.42149282    -0.55500
O846        O  0.89483014  0.86194841  0.30350286    -0.56700
C847        C  0.88082416  0.88133306  0.26098680     0.75900
O848        O  0.89874694  0.91465430  0.28016592    -0.57800
C849        C  0.90066129  0.86759716  0.31705494     0.75900
C850        C  0.93839893  0.87719468  0.27069680     0.78300
Cd851      Cd  0.90637457  0.88525374  0.28608489     1.37500
O852        O  0.89565763  0.87660284  0.25866105    -0.56700
O853        O  0.92981496  0.86623230  0.27793984    -0.55500
C854        C  0.90090434  0.91994001  0.29483058     0.78300
O855        O  0.93298562  0.89197191  0.27169935    -0.57900
O856        O  0.87717809  0.88609503  0.27554362    -0.56300
O857        O  0.90945408  0.88055483  0.31602286    -0.56300
O858        O  0.90707095  0.90971972  0.30506929    -0.55500
O859        O  0.68131270  0.39815147  0.61379369    -0.56700
C860        C  0.72079555  0.38756425  0.59382671     0.75900
O861        O  0.69620345  0.41154733  0.56131871    -0.57800
C862        C  0.66876607  0.40776793  0.61428913     0.75900
C863        C  0.71511808  0.44471019  0.59764140     0.78300
Cd864      Cd  0.69640137  0.41407633  0.59214828     1.37500
O865        O  0.72216842  0.40052976  0.60266121    -0.56700
O866        O  0.71447353  0.43770777  0.58355508    -0.55500
C867        C  0.68052695  0.41091497  0.55992558     0.78300
O868        O  0.70609678  0.43846947  0.60887098    -0.57900
O869        O  0.70754998  0.38616781  0.58545361    -0.56300
O870        O  0.66957995  0.42090006  0.60565988    -0.56300
O871        O  0.67224341  0.41343596  0.57301836    -0.55500
O872        O  0.55629232  0.36854257  0.64860164    -0.56700
C873        C  0.51641407  0.34671327  0.63340627     0.75900
O874        O  0.53539506  0.31480078  0.65428738    -0.57800
C875        C  0.57004964  0.36426335  0.65509695     0.75900
C876        C  0.52441492  0.35381946  0.69164325     0.78300
Cd877      Cd  0.54035996  0.34459150  0.66029910     1.37500
O878        O  0.51284044  0.35047783  0.64823854    -0.56700
O879        O  0.52986802  0.36455212  0.68159605    -0.55500
C880        C  0.55032690  0.31012588  0.65616597     0.78300
O881        O  0.52715584  0.33875870  0.68784673    -0.57900
O882        O  0.53151481  0.34325063  0.63048180    -0.56300
O883        O  0.56983901  0.35151961  0.66427433    -0.56300
O884        O  0.56042535  0.32094581  0.66149390    -0.55500
O885        O  0.36444677  0.17882689  0.08671388    -0.56700
C886        C  0.39422566  0.21747683  0.09863307     0.75900
O887        O  0.40429122  0.17066616  0.08473957    -0.57800
C888        C  0.36539210  0.16570415  0.07794662     0.75900
C889        C  0.37858429  0.21132405  0.04237952     0.78300
Cd890      Cd  0.38775479  0.19320249  0.07269597     1.37500
O891        O  0.40529235  0.21128732  0.08940764    -0.56700
O892        O  0.36810619  0.20786878  0.05354120    -0.55500
C893        C  0.41782310  0.17381314  0.07742018     0.78300
O894        O  0.39318594  0.20578126  0.04465315    -0.57900
O895        O  0.37941706  0.21277679  0.09596270    -0.56300
O896        O  0.37572984  0.16580346  0.06606148    -0.56300
O897        O  0.41747932  0.18548472  0.06682854    -0.55500
O898        O  0.33222569  0.05252755  0.11610878    -0.56700
C899        C  0.34640254  0.01310900  0.13718292     0.75900
O900        O  0.32353907  0.03198435  0.16866461    -0.57800
C901        C  0.32455707  0.06603907  0.11900099     0.75900
C902        C  0.28856383  0.01860728  0.12935126     0.78300
Cd903      Cd  0.31883469  0.03650524  0.13876250     1.37500
O904        O  0.33239445  0.01000457  0.13073191    -0.56700
O905        O  0.29804336  0.02510671  0.11867558    -0.55500
C906        C  0.32218995  0.04704488  0.17308963     0.78300
O907        O  0.29220224  0.02141459  0.14442077    -0.57900
O908        O  0.34828341  0.02756432  0.14311597    -0.56300
O909        O  0.31370668  0.06570702  0.13036948    -0.56300
O910        O  0.31729207  0.05715435  0.16207422    -0.55500
O911        O  0.36793578  0.33900825  0.93198636    -0.56700
C912        C  0.33701021  0.34939137  0.97236197     0.75900
O913        O  0.32786275  0.33791012  0.92545885    -0.57800
C914        C  0.36645548  0.33069936  0.91860397     0.75900
C915        C  0.35306142  0.29328066  0.96391845     0.78300
Cd916      Cd  0.34442734  0.32452210  0.94674412     1.37500
O917        O  0.32606248  0.34162003  0.96427319    -0.56700
O918        O  0.36396146  0.30380619  0.95979107    -0.55500
C919        C  0.31494387  0.32908272  0.92668032     0.78300
O920        O  0.33829155  0.29660339  0.95947183    -0.57900
O921        O  0.35201410  0.34594692  0.96880187    -0.56300
O922        O  0.35598915  0.31895885  0.91880036    -0.56300
O923        O  0.31550863  0.31718681  0.93703800    -0.55500
O924        O  0.39884367  0.37717258  0.76126555    -0.56700
C925        C  0.40695319  0.36862686  0.81700631     0.75900
O926        O  0.43898988  0.39575473  0.77290266    -0.57800
C927        C  0.38472025  0.38377597  0.76368812     0.75900
C928        C  0.40662978  0.42221689  0.79665652     0.78300
Cd929      Cd  0.41206658  0.38802639  0.78699995     1.37500
O930        O  0.39865777  0.36594917  0.80386162    -0.56700
O931        O  0.41170850  0.41156149  0.80705787    -0.55500
C932        C  0.44371630  0.38094141  0.77025363     0.78300
O933        O  0.40579820  0.41754396  0.78164459    -0.57900
O934        O  0.41824217  0.37951250  0.81606149    -0.56300
O935        O  0.38277507  0.39127760  0.77736572    -0.56300
O936        O  0.43439700  0.36966457  0.77592457    -0.55500
O937        O  0.90006644  0.11563662  0.17579112    -0.56700
C938        C  0.88642987  0.09554138  0.21573639     0.75900
O939        O  0.91061310  0.06267103  0.19649815    -0.57800
C940        C  0.90852793  0.11344342  0.16268536     0.75900
C941        C  0.94495514  0.10293875  0.20939143     0.78300
Cd942      Cd  0.91394204  0.09323934  0.19221920     1.37500
O943        O  0.89998013  0.10313978  0.21808994    -0.56700
O944        O  0.93521957  0.11336193  0.20273439    -0.55500
C945        C  0.91033628  0.05876797  0.18123507     0.78300
O946        O  0.94111955  0.08777628  0.20739416    -0.57900
O947        O  0.88496389  0.08804811  0.20198696    -0.56300
O948        O  0.91977871  0.10238527  0.16333992    -0.56300
O949        O  0.91354990  0.07033268  0.17112150    -0.55500
O950        O  0.87055512  0.14974297  0.05095507    -0.56700
C951        C  0.84834967  0.13414545  0.01336896     0.75900
O952        O  0.81724565  0.15921647  0.03200001    -0.57800
C953        C  0.86827940  0.15802008  0.06418259     0.75900
C954        C  0.85448257  0.19388248  0.01699721     0.78300
Cd955      Cd  0.84741627  0.16313750  0.03513699     1.37500
O956        O  0.85669192  0.14708027  0.01017820    -0.56700
O957        O  0.83974290  0.18907580  0.01963932    -0.55500
C958        C  0.81377588  0.16061068  0.04727463     0.78300
O959        O  0.86591319  0.18503449  0.02326432    -0.57900
O960        O  0.84053052  0.13417352  0.02696052    -0.56300
O961        O  0.85713943  0.16918690  0.06367584    -0.56300
O962        O  0.82551983  0.16492953  0.05685414    -0.55500
O963        O  0.18190084  0.09026228  0.36308112    -0.56700
C964        C  0.22196633  0.10361186  0.38384899     0.75900
O965        O  0.17681666  0.07831936  0.40837260    -0.57800
C966        C  0.16859320  0.08236136  0.36593659     0.75900
C967        C  0.21512706  0.04538774  0.37829377     0.78300
Cd968      Cd  0.19810295  0.07678599  0.38594755     1.37500
O969        O  0.20805667  0.10542226  0.39094021    -0.56700
O970        O  0.21002549  0.05524244  0.36715008    -0.55500
C971        C  0.18699902  0.08157910  0.41993153     0.78300
O972        O  0.21147877  0.04931030  0.39310654    -0.57900
O973        O  0.22435983  0.08994418  0.37640878    -0.56300
O974        O  0.16931190  0.07132225  0.37709526    -0.56300
O975        O  0.20230213  0.08099387  0.41618116    -0.55500
O976        O  0.05603704  0.12362663  0.33335286    -0.56700
C977        C  0.01652013  0.15086368  0.34504114     0.75900
O978        O  0.04803863  0.17679493  0.31486589    -0.57800
C979        C  0.06891370  0.12430216  0.32424966     0.75900
C980        C  0.02359080  0.13854273  0.28774607     0.78300
Cd981      Cd  0.04118003  0.14664773  0.31889574     1.37500
O982        O  0.01943932  0.13653479  0.33911361    -0.56700
O983        O  0.02939859  0.12763652  0.29745555    -0.55500
C984        C  0.06072094  0.17632126  0.32432415     0.78300
O985        O  0.02653015  0.15350935  0.29173515    -0.57900
O986        O  0.02498138  0.16262259  0.33919708    -0.56300
O987        O  0.06835894  0.13424427  0.31204896    -0.56300
O988        O  0.06485504  0.16223492  0.32989762    -0.55500
O989        O  0.84071091  0.43121302  0.85813284    -0.56700
C990        C  0.84930486  0.47187202  0.82638845     0.75900
O991        O  0.81657814  0.43661786  0.80758483    -0.57800
C992        C  0.83103326  0.41874690  0.85809371     0.75900
C993        C  0.79596686  0.46405793  0.84805370     0.78300
Cd994      Cd  0.82532352  0.44652084  0.83586182     1.37500
O995        O  0.83844202  0.46606835  0.81663692    -0.56700
O996        O  0.80880743  0.46168621  0.85687566    -0.55500
C997        C  0.82843409  0.42613927  0.80666246     0.78300
O998        O  0.79631338  0.45803013  0.83348707    -0.57900
O999        O  0.84923482  0.46624182  0.84109854    -0.56300
O1000       O  0.81835026  0.41967622  0.84873540    -0.56300
O1001       O  0.83787648  0.42489434  0.81917891    -0.55500
O1002       O  0.86968522  0.30670767  0.89460579    -0.56700
C1003       C  0.90103550  0.26433070  0.88637607     0.75900
O1004       O  0.92170805  0.30332101  0.91405932    -0.57800
C1005       C  0.87136775  0.31992621  0.90313236     0.75900
C1006       C  0.88374294  0.27412601  0.93859407     0.78300
Cd1007     Cd  0.89320249  0.29166897  0.90844086     1.37500
O1008       O  0.88652406  0.27065034  0.88604591    -0.56700
O1009       O  0.87389805  0.27613305  0.92645916    -0.55500
C1010       C  0.92220451  0.31072754  0.90011388     0.78300
O1011       O  0.89782958  0.28113374  0.93746157    -0.57900
O1012       O  0.91117474  0.27053513  0.89665534    -0.56300
O1013       O  0.88189074  0.31943051  0.91489609    -0.56300
O1014       O  0.90952556  0.30942334  0.89086739    -0.55500
O1015       O  0.68130318  0.58259479  0.86980430    -0.56700
C1016       C  0.71963347  0.59743320  0.89186285     0.75900
O1017       O  0.69760647  0.56775177  0.92347803    -0.57800
C1018       C  0.66847993  0.57360433  0.87158089     0.75900
C1019       C  0.71453512  0.53856341  0.88417004     0.78300
Cd1020     Cd  0.69699674  0.56922097  0.89269226     1.37500
O1021       O  0.72135040  0.58503965  0.88229710    -0.56700
O1022       O  0.70556687  0.54630624  0.87381784    -0.55500
C1023       C  0.68222986  0.57081416  0.92530721     0.78300
O1024       O  0.71476857  0.54433874  0.89881895    -0.57900
O1025       O  0.70695276  0.59738829  0.90110182    -0.56300
O1026       O  0.66931441  0.56214098  0.88229158    -0.56300
O1027       O  0.67356230  0.57166208  0.91221632    -0.55500
O1028       O  0.55389261  0.61100251  0.84347042    -0.56700
C1029       C  0.51361085  0.64383443  0.85347894     0.75900
O1030       O  0.54938879  0.66275600  0.82186967    -0.57800
C1031       C  0.56644263  0.61165681  0.83391766     0.75900
C1032       C  0.52081853  0.62626543  0.79973596     0.78300
Cd1033     Cd  0.53918572  0.63475909  0.82969057     1.37500
O1034       O  0.51826744  0.62877285  0.85237881    -0.56700
O1035       O  0.52167318  0.61659079  0.81207862    -0.55500
C1036       C  0.55935227  0.66392930  0.83409260     0.78300
O1037       O  0.52896838  0.63967980  0.80082196    -0.57900
O1038       O  0.52076388  0.65401262  0.84400043    -0.56300
O1039       O  0.56561117  0.62177455  0.82192600    -0.56300
O1040       O  0.56039256  0.65150655  0.84366982    -0.55500
O1041       O  0.36877990  0.80203144  0.40193015    -0.56700
C1042       C  0.38654824  0.76188019  0.38675513     0.75900
O1043       O  0.42070234  0.78055251  0.40228869    -0.57800
C1044       C  0.37381007  0.81592250  0.40739547     0.75900
C1045       C  0.38710766  0.76810662  0.44458850     0.78300
Cd1046     Cd  0.39255031  0.78545756  0.41322308     1.37500
O1047       O  0.38137684  0.75943472  0.40138664    -0.56700
O1048       O  0.37555770  0.77583755  0.43715050    -0.55500
C1049       C  0.42677493  0.79420241  0.40718987     0.78300
O1050       O  0.40150426  0.76940803  0.43838143    -0.57900
O1051       O  0.39325254  0.77579134  0.38396129    -0.56300
O1052       O  0.38674572  0.81561190  0.41636647    -0.56300
O1053       O  0.41754783  0.80326836  0.41622770    -0.55500
O1054       O  0.34069063  0.92931827  0.36593863    -0.56700
C1055       C  0.35059385  0.96761808  0.34351310     0.75900
O1056       O  0.32334731  0.94563130  0.31413880    -0.57800
C1057       C  0.33217581  0.91607686  0.36585938     0.75900
C1058       C  0.29292898  0.96202351  0.35357410     0.78300
Cd1059     Cd  0.32341500  0.94400006  0.34479922     1.37500
O1060       O  0.33811994  0.96998313  0.35280186    -0.56700
O1061       O  0.30185473  0.95508466  0.36455495    -0.55500
C1062       C  0.32340016  0.93009702  0.31160477     0.78300
O1063       O  0.29731511  0.95965645  0.33866985    -0.57900
O1064       O  0.35106356  0.95397162  0.33569750    -0.56300
O1065       O  0.31910920  0.91616522  0.35702718    -0.56300
O1066       O  0.32176269  0.92094031  0.32424895    -0.55500
O1067       O  0.40068509  0.62005708  0.68302463    -0.56700
C1068       C  0.38381067  0.59971741  0.72242159     0.75900
O1069       O  0.40411889  0.56691301  0.70388904    -0.57800
C1070       C  0.40825600  0.61565628  0.66990466     0.75900
C1071       C  0.44241688  0.60178611  0.71781220     0.78300
Cd1072     Cd  0.41149522  0.59627941  0.69984174     1.37500
O1073       O  0.39791658  0.60589783  0.72563165    -0.56700
O1074       O  0.43486853  0.61359756  0.71064117    -0.55500
C1075       C  0.40649786  0.56247942  0.68899103     0.78300
O1076       O  0.43634707  0.58741990  0.71582583    -0.57900
O1077       O  0.38187170  0.59363400  0.70803994    -0.56300
O1078       O  0.41777155  0.60314387  0.67102371    -0.56300
O1079       O  0.41276989  0.57318917  0.67939503    -0.55500
O1080       O  0.37171450  0.64277747  0.55586589    -0.56700
C1081       C  0.34417847  0.63009618  0.51522234     0.75900
O1082       O  0.33262529  0.64511340  0.56214895    -0.57800
C1083       C  0.37102970  0.65306740  0.56783985     0.75900
C1084       C  0.35829636  0.68619427  0.52119083     0.78300
Cd1085     Cd  0.34931214  0.65636249  0.53958940     1.37500
O1086       O  0.33256933  0.63716777  0.52306384    -0.56700
O1087       O  0.36873925  0.67490666  0.52459688    -0.55500
C1088       C  0.31912179  0.65234383  0.55843628     0.78300
O1089       O  0.34366958  0.68411770  0.52667200    -0.57900
O1090       O  0.35883640  0.63472705  0.51872948    -0.56300
O1091       O  0.36130456  0.66539306  0.56614241    -0.56300
O1092       O  0.31955952  0.66255972  0.54641702    -0.55500
O1093       O  0.33536918  0.51901921  0.82400200    -0.56700
C1094       C  0.32840848  0.56680806  0.86535179     0.75900
O1095       O  0.33805477  0.55998537  0.82616134    -0.57800
C1096       C  0.34641632  0.51375591  0.83387575     0.75900
C1097       C  0.29389516  0.52081173  0.85281795     0.78300
Cd1098     Cd  0.32298395  0.53970709  0.84231804     1.37500
O1099       O  0.33783752  0.55409554  0.86535095    -0.56700
O1100       O  0.30676570  0.52248209  0.86175431    -0.55500
C1101       C  0.32879052  0.56009974  0.81344874     0.78300
O1102       O  0.29381895  0.52864863  0.83914803    -0.57900
O1103       O  0.31579360  0.56629894  0.85585140    -0.56300
O1104       O  0.34687897  0.52041256  0.84818024    -0.56300
O1105       O  0.31596948  0.55089198  0.81388145    -0.55500
O1106       O  0.39322906  0.70473633  0.88558003    -0.56700
C1107       C  0.36843618  0.66613966  0.90918939     0.75900
O1108       O  0.41874564  0.69873239  0.91056245    -0.57800
C1109       C  0.38769429  0.71935957  0.88756324     0.75900
C1110       C  0.37929463  0.71360348  0.94488173     0.78300
Cd1111     Cd  0.38837832  0.69567786  0.91472519     1.37500
O1112       O  0.36574466  0.67928257  0.90090619    -0.56700
O1113       O  0.36854609  0.70792062  0.93489448    -0.55500
C1114       C  0.42218239  0.68343137  0.91201684     0.78300
O1115       O  0.39434809  0.71005035  0.94172036    -0.57900
O1116       O  0.37929807  0.66708559  0.92055061    -0.56300
O1117       O  0.38124464  0.72259808  0.90151812    -0.56300
O1118       O  0.41045915  0.67407779  0.91662146    -0.55500
O1119       O  0.02936777  0.33879276  0.84695748    -0.56700
C1120       C  0.06984132  0.35806221  0.82571842     0.75900
O1121       O  0.03454443  0.30970120  0.82639580    -0.57800
C1122       C  0.01493468  0.34397260  0.84327187     0.75900
C1123       C  0.02412544  0.34766122  0.78658286     0.78300
Cd1124     Cd  0.04003942  0.33904933  0.81815374     1.37500
O1125       O  0.05590294  0.36197200  0.83197189    -0.56700
O1126       O  0.03086609  0.35843452  0.79585411    -0.55500
C1127       C  0.04919465  0.30440213  0.82398279     0.78300
O1128       O  0.02606645  0.33263088  0.79091021    -0.57900
O1129       O  0.06979636  0.34619730  0.81534527    -0.56300
O1130       O  0.01250129  0.34808696  0.82831625    -0.56300
O1131       O  0.05917016  0.31449871  0.81726635    -0.55500
O1132       O  0.22385044  0.39580303  0.87954762    -0.56700
C1133       C  0.16842607  0.40213682  0.86902348     0.75900
O1134       O  0.20040658  0.40441938  0.91972135    -0.57800
C1135       C  0.22177133  0.38243082  0.88751145     0.75900
C1136       C  0.21507028  0.44029105  0.88176700     0.78300
Cd1137     Cd  0.19757028  0.40921350  0.88929843     1.37500
O1138       O  0.18189228  0.39403009  0.86730773    -0.56700
O1139       O  0.20691966  0.43240717  0.87083761    -0.55500
C1140       C  0.18497824  0.40508127  0.92280131     0.78300
O1141       O  0.21416518  0.43468187  0.89642214    -0.57900
O1142       O  0.16877299  0.41427707  0.87908235    -0.56300
O1143       O  0.20798168  0.38082118  0.89483524    -0.56300
O1144       O  0.17562890  0.40962659  0.91097224    -0.55500
O1145       O  0.52044838  0.82389059  0.33317396    -0.56700
C1146       C  0.56661096  0.86678429  0.32676405     0.75900
O1147       O  0.56177266  0.82820987  0.33669797    -0.57800
C1148       C  0.51512168  0.83305872  0.34478904     0.75900
C1149       C  0.52203124  0.85411815  0.29173550     0.78300
Cd1150     Cd  0.54036232  0.84322474  0.32136719     1.37500
O1151       O  0.56649826  0.85674549  0.31458224    -0.56700
O1152       O  0.52443990  0.86347358  0.30417716    -0.55500
C1153       C  0.56299794  0.81562854  0.32732246     0.78300
O1154       O  0.52858128  0.83974623  0.29248332    -0.57900
O1155       O  0.55368665  0.86718107  0.33584527    -0.56300
O1156       O  0.52105106  0.84764171  0.34559773    -0.56300
O1157       O  0.55392539  0.81561851  0.31433836    -0.55500
O1158       O  0.72053968  0.89936323  0.37830076    -0.56700
C1159       C  0.66569889  0.90905604  0.36833981     0.75900
O1160       O  0.69859655  0.91176805  0.41878505    -0.57800
C1161       C  0.71782145  0.88579660  0.38569394     0.75900
C1162       C  0.71318288  0.94455787  0.38038162     0.78300
Cd1163     Cd  0.69522479  0.91398687  0.38826896     1.37500
O1164       O  0.67874585  0.90046437  0.36590334    -0.56700
O1165       O  0.71248655  0.93882132  0.39499579    -0.55500
C1166       C  0.68318329  0.91140051  0.42202621     0.78300
O1167       O  0.70477666  0.93688386  0.36950727    -0.57900
O1168       O  0.66667984  0.92054389  0.37908669    -0.56300
O1169       O  0.70412787  0.88470388  0.39330854    -0.56300
O1170       O  0.67337432  0.91399072  0.41000561    -0.55500
O1171       O  0.86988631  0.17983047  0.39596155    -0.56700
C1172       C  0.89092627  0.21997242  0.38482941     0.75900
O1173       O  0.89863470  0.20964459  0.43795653    -0.57800
C1174       C  0.87219864  0.16624766  0.40361622     0.75900
C1175       C  0.92584483  0.18330996  0.40790140     0.78300
Cd1176     Cd  0.89212375  0.19533497  0.41108611     1.37500
O1177       O  0.89841094  0.20624993  0.38288748    -0.56700
O1178       O  0.92260421  0.19872080  0.40861952    -0.55500
C1179       C  0.88367908  0.21176844  0.44243384     0.78300
O1180       O  0.91388247  0.17351566  0.41056821    -0.57900
O1181       O  0.88296462  0.22179724  0.39824687    -0.56300
O1182       O  0.88284483  0.16643102  0.41523677    -0.56300
O1183       O  0.87269718  0.20527454  0.43320667    -0.55500
O1184       O  0.83583395  0.05561629  0.36086181    -0.56700
C1185       C  0.84451479  0.01479238  0.33000402     0.75900
O1186       O  0.79178676  0.03148158  0.33388468    -0.57800
C1187       C  0.82720490  0.06885284  0.35995118     0.75900
C1188       C  0.82913350  0.06095519  0.30827156     0.78300
Cd1189     Cd  0.82146196  0.04149048  0.33745527     1.37500
O1190       O  0.83487087  0.02116762  0.31936669    -0.56700
O1191       O  0.81637430  0.05163042  0.30835791    -0.55500
C1192       C  0.79126397  0.02407920  0.34779725     0.78300
O1193       O  0.83748399  0.06167156  0.32159662    -0.57900
O1194       O  0.84371554  0.02064146  0.34464327    -0.56300
O1195       O  0.81514177  0.06881976  0.34975049    -0.56300
O1196       O  0.80402378  0.02548769  0.35690538    -0.55500
O1197       O  0.89884809  0.38192011  0.71894347    -0.56700
C1198       C  0.90525778  0.37183867  0.66351588     0.75900
O1199       O  0.90749879  0.42116863  0.69812521    -0.57800
C1200       C  0.88492197  0.38880569  0.71622698     0.75900
C1201       C  0.94301423  0.38177136  0.71017996     0.78300
Cd1202     Cd  0.91216220  0.39119304  0.69306010     1.37500
O1203       O  0.89738396  0.36941834  0.67690676    -0.56700
O1204       O  0.93359475  0.37114040  0.70343336    -0.55500
C1205       C  0.90874198  0.42558728  0.68309569     0.78300
O1206       O  0.93892651  0.39686545  0.70814457    -0.57900
O1207       O  0.91689402  0.38240463  0.66404311    -0.56300
O1208       O  0.88309271  0.39578260  0.70229337    -0.56300
O1209       O  0.91337600  0.41451966  0.67287645    -0.55500
O1210       O  0.82255558  0.33682031  0.51777765    -0.56700
C1211       C  0.86305601  0.32866353  0.56463359     0.75900
O1212       O  0.82528053  0.33719014  0.55755948    -0.57800
C1213       C  0.83309166  0.34637550  0.51125851     0.75900
C1214       C  0.85261955  0.29262537  0.51981380     0.78300
Cd1215     Cd  0.84137261  0.32264128  0.53682007     1.37500
O1216       O  0.86414586  0.33743355  0.55157906    -0.56700
O1217       O  0.86154890  0.30546949  0.52124287    -0.55500
C1218       C  0.81193326  0.32907282  0.55597609     0.78300
O1219       O  0.83845323  0.29320166  0.52674100    -0.57900
O1220       O  0.85313518  0.31644787  0.56415105    -0.56300
O1221       O  0.84801802  0.34495471  0.51624149    -0.56300
O1222       O  0.81212914  0.31680378  0.54594597    -0.55500
O1223       O  0.36258878  0.83817951  0.05626778    -0.56700
C1224       C  0.33586259  0.85079148  0.01492459     0.75900
O1225       O  0.33258665  0.79820934  0.02559260    -0.57800
C1226       C  0.35998037  0.83003806  0.06950293     0.75900
C1227       C  0.30838823  0.82804031  0.05787935     0.78300
Cd1228     Cd  0.33936805  0.82488396  0.04018543     1.37500
O1229       O  0.34992770  0.84418288  0.01772099    -0.56700
O1230       O  0.32141708  0.83593250  0.06175851    -0.55500
C1231       C  0.34750749  0.79386155  0.02292614     0.78300
O1232       O  0.30953300  0.81787389  0.04582535    -0.57900
O1233       O  0.32406984  0.84599170  0.02400159    -0.56300
O1234       O  0.34896871  0.81883684  0.06871067    -0.56300
O1235       O  0.35860834  0.80315936  0.02904616    -0.55500
O1236       O  0.39210847  0.91042812  0.21369761    -0.56700
C1237       C  0.40394158  0.87094686  0.16883589     0.75900
O1238       O  0.39691293  0.90859149  0.17369618    -0.57800
C1239       C  0.38472662  0.89875395  0.22104184     0.75900
C1240       C  0.44150959  0.88499990  0.21335244     0.78300
Cd1241     Cd  0.41028246  0.89345562  0.19611917     1.37500
O1242       O  0.39497744  0.87073200  0.18180708    -0.56700
O1243       O  0.43119988  0.87414762  0.20854425    -0.55500
C1244       C  0.40428175  0.92231801  0.17548406     0.78300
O1245       O  0.43799750  0.89990748  0.20960645    -0.57900
O1246       O  0.41663576  0.88028439  0.16920564    -0.56300
O1247       O  0.38933554  0.88412678  0.21734622    -0.56300
O1248       O  0.41557600  0.92289212  0.18655713    -0.55500
C1249       C  0.38475891  0.84509027  0.10240743     0.30900
C1250       C  0.39741893  0.85451333  0.10995093    -0.35400
C1251       C  0.39697297  0.85557030  0.12739214     0.16900
C1252       C  0.38479208  0.84806218  0.13681080     0.22700
C1253       C  0.37227535  0.83841773  0.12928973    -0.33600
C1254       C  0.37285325  0.83717986  0.11185127     0.16800
O1255       O  0.38217452  0.84332675  0.08624319    -0.25600
C1256       C  0.36858850  0.83390556  0.08530389     0.06600
C1257       C  0.36231692  0.82965864  0.10086231    -0.30500
O1258       O  0.38597515  0.85185433  0.15278670    -0.22300
C1259       C  0.39924490  0.86173396  0.15364383    -0.02300
C1260       C  0.40660161  0.86439947  0.13822232    -0.16700
H1261       H  0.40670096  0.86096476  0.10270150     0.21300
H1262       H  0.36249818  0.83266528  0.13648487     0.19600
H1263       H  0.35110168  0.82277651  0.10363583     0.19600
H1264       H  0.41692233  0.87249898  0.13529656     0.15500
C1265       C  0.88695134  0.34606731  0.59681323     0.30900
C1266       C  0.89827354  0.35715918  0.60418073    -0.35400
C1267       C  0.89824515  0.35776448  0.62163795     0.16900
C1268       C  0.88768905  0.34825281  0.63120711     0.22700
C1269       C  0.87654390  0.33699596  0.62385575    -0.33600
C1270       C  0.87672177  0.33624233  0.60641975     0.16800
O1271       O  0.88402088  0.34432757  0.58072315    -0.25600
C1272       C  0.87196129  0.33301765  0.58004014     0.06600
C1273       C  0.86701141  0.32750070  0.59564322    -0.30500
O1274       O  0.88900428  0.35159962  0.64723966    -0.22300
C1275       C  0.90070137  0.36327385  0.64797029    -0.02300
C1276       C  0.90692759  0.36755491  0.63242795    -0.16700
H1277       H  0.90622609  0.36508479  0.59681976     0.21300
H1278       H  0.86803666  0.32964190  0.63119357     0.19600
H1279       H  0.85698139  0.31906126  0.59862020     0.19600
H1280       H  0.91601087  0.37700980  0.62947906     0.15500
C1281       C  0.88086710  0.24090956  0.47499874     0.30900
C1282       C  0.88612538  0.25453531  0.48464056    -0.35400
C1283       C  0.87391743  0.26215052  0.49461871     0.16900
C1284       C  0.85767777  0.25662456  0.49528294     0.22700
C1285       C  0.85243065  0.24295768  0.48566900    -0.33600
C1286       C  0.86458841  0.23548152  0.47549611     0.16800
O1287       O  0.88990108  0.23277476  0.46389096    -0.25600
C1288       C  0.87928098  0.22201665  0.45708571     0.06600
C1289       C  0.86333988  0.22315918  0.46383006    -0.30500
O1290       O  0.84812171  0.26618909  0.50472809    -0.22300
C1291       C  0.85835683  0.27805773  0.51011703    -0.02300
C1292       C  0.87455705  0.27614546  0.50422035    -0.16700
H1293       H  0.89870484  0.25926136  0.48393649     0.21300
H1294       H  0.83961855  0.23883457  0.48565013     0.19600
H1295       H  0.85228444  0.21641218  0.46014561     0.19600
H1296       H  0.88510422  0.28426747  0.50620626     0.15500
C1297       C  0.84545007  0.10015678  0.38437631     0.30900
C1298       C  0.85736105  0.10710378  0.39515099    -0.35400
C1299       C  0.85785358  0.12457181  0.39581051     0.16900
C1300       C  0.84746064  0.13454716  0.38640810     0.22700
C1301       C  0.83537122  0.12760037  0.37584628    -0.33600
C1302       C  0.83476914  0.11013889  0.37530765     0.16800
O1303       O  0.84373400  0.08419215  0.38078675    -0.25600
C1304       C  0.83162714  0.08392684  0.36943869     0.06600
C1305       C  0.82551737  0.09971027  0.36564952    -0.30500
O1306       O  0.85083941  0.15054747  0.38810210    -0.22300
C1307       C  0.86342202  0.15084660  0.39891246    -0.02300
C1308       C  0.86826717  0.13504484  0.40415702    -0.16700
H1309       H  0.86598579  0.09944111  0.40213182     0.21300
H1310       H  0.82732891  0.13526426  0.36820940     0.19600
H1311       H  0.81640155  0.10307527  0.35629599     0.19600
H1312       H  0.87844451  0.13174544  0.41237594     0.15500
C1313       C  0.73563945  0.97743696  0.36219017     0.30900
C1314       C  0.74089885  0.98814755  0.34939361    -0.35400
C1315       C  0.75491212  0.99807364  0.35290228     0.16900
C1316       C  0.76319010  0.99740173  0.36794008     0.22700
C1317       C  0.75780594  0.98689604  0.38077523    -0.33600
C1318       C  0.74378280  0.97708463  0.37730961     0.16800
O1319       O  0.72349358  0.96636116  0.36131090    -0.25600
C1320       C  0.72374827  0.95897863  0.37615195     0.06600
C1321       C  0.73609087  0.96521668  0.38660082    -0.30500
O1322       O  0.77663000  0.00681433  0.36822409    -0.22300
C1323       C  0.77700573  0.01379836  0.35322328    -0.02300
C1324       C  0.76372178  0.00887486  0.34316121    -0.16700
H1325       H  0.73478033  0.98839444  0.33739978     0.21300
H1326       H  0.76437654  0.98609647  0.39250738     0.19600
H1327       H  0.73940060  0.96106142  0.39896982     0.19600
H1328       H  0.76137158  0.01213830  0.33032204     0.15500
C1329       C  0.47569171  0.88207006  0.24088704     0.30900
C1330       C  0.48664789  0.88754558  0.25344276    -0.35400
C1331       C  0.49622041  0.87516604  0.26139146     0.16900
C1332       C  0.49531689  0.85855334  0.25710941     0.22700
C1333       C  0.48440791  0.85309206  0.24452531    -0.33600
C1334       C  0.47464298  0.86542641  0.23677008     0.16800
O1335       O  0.46471066  0.89131726  0.23271607    -0.25600
C1336       C  0.45642065  0.88044049  0.22329678     0.06600
C1337       C  0.46211022  0.86416058  0.22533218    -0.30500
O1338       O  0.50471927  0.84900124  0.26673556    -0.22300
C1339       C  0.51168540  0.85959963  0.27744357    -0.02300
C1340       C  0.50682392  0.87604618  0.27467954    -0.16700
H1341       H  0.48721888  0.90047561  0.25718310     0.21300
H1342       H  0.48316916  0.84004740  0.24141629     0.19600
H1343       H  0.45724343  0.85293556  0.21969943     0.19600
H1344       H  0.51016972  0.88698070  0.28181074     0.15500
C1345       C  0.59837803  0.89158613  0.34370541     0.30900
C1346       C  0.60590484  0.90240829  0.35523052    -0.35400
C1347       C  0.62341304  0.90297007  0.35494276     0.16900
C1348       C  0.63286240  0.89340675  0.34420164     0.22700
C1349       C  0.62534153  0.88289015  0.33247673    -0.33600
C1350       C  0.60788302  0.88247838  0.33263338     0.16800
O1351       O  0.58234849  0.88790829  0.34274221    -0.25600
C1352       C  0.58162501  0.87651616  0.33068770     0.06600
C1353       C  0.59712139  0.87277926  0.32391761    -0.30500
O1354       O  0.64900201  0.89466403  0.34708755    -0.22300
C1355       C  0.64996055  0.90537920  0.35968497    -0.02300
C1356       C  0.63443723  0.91104218  0.36501826    -0.16700
H1357       H  0.59867344  0.90940971  0.36419832     0.21300
H1358       H  0.63261023  0.87509463  0.32421526     0.19600
H1359       H  0.60014474  0.86337639  0.31473135     0.19600
H1360       H  0.63167054  0.91912759  0.37544678     0.15500
C1361       C  0.97412057  0.36150902  0.73368750     0.30900
C1362       C  0.98244430  0.34786159  0.74091229    -0.35400
C1363       C  0.99497093  0.35166256  0.75256918     0.16900
C1364       C  0.99899527  0.36778987  0.75686159     0.22700
C1365       C  0.99071839  0.38142732  0.74959642    -0.33600
C1366       C  0.97823128  0.37762986  0.73791779     0.16800
O1367       O  0.96152843  0.36081551  0.72307172    -0.25600
C1368       C  0.95755358  0.37671251  0.72036757     0.06600
C1369       C  0.96754902  0.38771138  0.72929991    -0.30500
O1370       O  0.01032241  0.36849058  0.76879618    -0.22300
C1371       C  0.01371417  0.35260293  0.77219163    -0.02300
C1372       C  0.00454207  0.34158013  0.76242136    -0.16700
H1373       H  0.97911782  0.33516175  0.73794416     0.21300
H1374       H  0.99353819  0.39411652  0.75311143     0.19600
H1375       H  0.96668704  0.40114946  0.72979772     0.19600
H1376       H  0.00430616  0.32813637  0.76311508     0.15500
C1377       C  0.10201873  0.38240020  0.84283111     0.30900
C1378       C  0.10920935  0.39502031  0.85263924    -0.35400
C1379       C  0.12668322  0.39461202  0.85413332     0.16900
C1380       C  0.13637987  0.38255612  0.84659034     0.22700
C1381       C  0.12921087  0.37004548  0.83671599    -0.33600
C1382       C  0.11180410  0.37053238  0.83511537     0.16800
O1383       O  0.08592066  0.37990932  0.84030972    -0.25600
C1384       C  0.08544587  0.36637689  0.83069010     0.06600
C1385       C  0.10118911  0.36006387  0.82705544    -0.30500
O1386       O  0.15233734  0.38394248  0.85035268    -0.22300
C1387       C  0.15297807  0.39714654  0.86036063    -0.02300
C1388       C  0.13737312  0.40431859  0.86312567    -0.16700
H1389       H  0.10169772  0.40430045  0.85892166     0.21300
H1390       H  0.13666767  0.36040187  0.83093412     0.19600
H1391       H  0.10431053  0.34897900  0.82002836     0.19600
H1392       H  0.13428952  0.41471248  0.87115098     0.15500
C1393       C  0.35954659  0.73964636  0.97402123     0.30900
C1394       C  0.34618958  0.74859799  0.98100591    -0.35400
C1395       C  0.35025269  0.75977810  0.99383895     0.16900
C1396       C  0.36637656  0.76210470  0.99933024     0.22700
C1397       C  0.37972134  0.75306707  0.99241650    -0.33600
C1398       C  0.37564693  0.74181920  0.97964129     0.16800
O1399       O  0.35866477  0.72910329  0.96142619    -0.25600
C1400       C  0.37439280  0.72436027  0.95896783     0.06600
C1401       C  0.38550875  0.73187890  0.96995243    -0.30500
O1402       O  0.36748567  0.77397041  0.01068450    -0.22300
C1403       C  0.35184513  0.77922581  0.01263573    -0.02300
C1404       C  0.34058106  0.77077498  0.00251453    -0.16700
H1405       H  0.33355931  0.74720977  0.97649805     0.21300
H1406       H  0.39244123  0.75496402  0.99644346     0.19600
H1407       H  0.39893268  0.73064640  0.97034233     0.19600
H1408       H  0.32734382  0.77301128  0.00113945     0.15500
C1409       C  0.25945217  0.49396722  0.85677245     0.30900
C1410       C  0.24589652  0.48427311  0.85135236    -0.35400
C1411       C  0.23891044  0.47347715  0.86319006     0.16900
C1412       C  0.24478909  0.47235074  0.87928546     0.22700
C1413       C  0.25836063  0.48198445  0.88467854    -0.33600
C1414       C  0.26538905  0.49268889  0.87283402     0.16800
O1415       O  0.26828505  0.50441036  0.84764833    -0.25600
C1416       C  0.28007170  0.50985547  0.85801281     0.06600
C1417       C  0.27886059  0.50292902  0.87382004    -0.30500
O1418       O  0.23683154  0.46102020  0.88810421    -0.22300
C1419       C  0.22567272  0.45473045  0.87754516    -0.02300
C1420       C  0.22643408  0.46201626  0.86184671    -0.16700
H1421       H  0.24132485  0.48485910  0.83869972     0.21300
H1422       H  0.26332134  0.48095604  0.89715457     0.19600
H1423       H  0.28701128  0.50484793  0.88438404     0.19600
H1424       H  0.21920720  0.45892687  0.85089636     0.15500
C1425       C  0.34437856  0.63294552  0.89393964     0.30900
C1426       C  0.33198421  0.62524718  0.88428387    -0.35400
C1427       C  0.33328596  0.60788368  0.88252090     0.16900
C1428       C  0.34598629  0.59869765  0.88963235     0.22700
C1429       C  0.35818019  0.60634779  0.89958288    -0.33600
C1430       C  0.35677184  0.62368867  0.90149147     0.16800
O1431       O  0.34641404  0.64914556  0.89603286    -0.25600
C1432       C  0.36012892  0.65025580  0.90531006     0.06600
C1433       C  0.36700370  0.63480480  0.90918229    -0.30500
O1434       O  0.34564134  0.58286583  0.88511066    -0.22300
C1435       C  0.33240353  0.58184553  0.87514010    -0.02300
C1436       C  0.32421355  0.59702339  0.87316213    -0.16700
H1437       H  0.32235450  0.63236110  0.87807069     0.21300
H1438       H  0.36838748  0.59936152  0.90497309     0.19600
H1439       H  0.37849549  0.63222250  0.91576953     0.19600
H1440       H  0.31370882  0.59983149  0.86517658     0.15500
C1441       C  0.33772629  0.57695758  0.77423610     0.30900
C1442       C  0.33872466  0.57703503  0.75676824    -0.35400
C1443       C  0.35109982  0.58725451  0.74986157     0.16900
C1444       C  0.36167212  0.59679146  0.75949704     0.22700
C1445       C  0.36045534  0.59696938  0.77685936    -0.33600
C1446       C  0.34824249  0.58668892  0.78372678     0.16800
O1447       O  0.32859773  0.56684069  0.78342077    -0.25600
C1448       C  0.33341379  0.57019856  0.79893749     0.06600
C1449       C  0.34552096  0.58248603  0.79981416    -0.30500
O1450       O  0.37379693  0.60350464  0.75081081    -0.22300
C1451       C  0.37097923  0.59835694  0.73534504    -0.02300
C1452       C  0.35691411  0.58832992  0.73396108    -0.16700
H1453       H  0.33114174  0.56890679  0.74916551     0.21300
H1454       H  0.36918914  0.60377030  0.78453619     0.19600
H1455       H  0.35221077  0.58682780  0.81068334     0.19600
H1456       H  0.35266632  0.58144734  0.72317944     0.15500
C1457       C  0.39545431  0.63959598  0.63575158     0.30900
C1458       C  0.38588656  0.65152932  0.62725003    -0.35400
C1459       C  0.38578395  0.65022348  0.60982873     0.16900
C1460       C  0.39442367  0.63797420  0.60135436     0.22700
C1461       C  0.40429581  0.62631219  0.60982371    -0.33600
C1462       C  0.40444167  0.62765247  0.62720825     0.16800
O1463       O  0.39602955  0.63742785  0.65202628    -0.25600
C1464       C  0.40566281  0.62403379  0.65387844     0.06600
C1465       C  0.41132461  0.61752245  0.63887138    -0.30500
O1466       O  0.39103307  0.63783756  0.58529354    -0.22300
C1467       C  0.38024907  0.65029908  0.58339895    -0.02300
C1468       C  0.37663176  0.65853640  0.59821795    -0.16700
H1469       H  0.37841613  0.66067460  0.63377385     0.21300
H1470       H  0.41074880  0.61638033  0.60336558     0.19600
H1471       H  0.41856428  0.60631088  0.63682876     0.19600
H1472       H  0.36758146  0.66833922  0.60030702     0.15500
C1473       C  0.33652499  0.92310868  0.27095089     0.30900
C1474       C  0.34404384  0.92826616  0.25614536    -0.35400
C1475       C  0.35357874  0.91625910  0.24779517     0.16900
C1476       C  0.35533637  0.90010080  0.25333986     0.22700
C1477       C  0.34740910  0.89479266  0.26795529    -0.33600
C1478       C  0.33808521  0.90692997  0.27652071     0.16800
O1479       O  0.32972567  0.93306250  0.28209836    -0.25600
C1480       C  0.32677899  0.92320289  0.29499572     0.06600
C1481       C  0.33149029  0.90673424  0.29214327    -0.30500
O1482       O  0.36619335  0.89146757  0.24442169    -0.22300
C1483       C  0.37147736  0.90233517  0.23314658    -0.02300
C1484       C  0.36400410  0.91789533  0.23463894    -0.16700
H1485       H  0.34356965  0.94109326  0.25210779     0.21300
H1486       H  0.34933622  0.88242900  0.27291358     0.19600
H1487       H  0.33188329  0.89661702  0.30099566     0.19600
H1488       H  0.36646317  0.92901288  0.22749595     0.15500
C1489       C  0.37744137  0.71676194  0.49659481     0.30900
C1490       C  0.39052205  0.72432524  0.48781556    -0.35400
C1491       C  0.38607581  0.73779587  0.47756422     0.16900
C1492       C  0.36987040  0.74339866  0.47605763     0.22700
C1493       C  0.35684972  0.73595971  0.48496915    -0.33600
C1494       C  0.36128628  0.72253010  0.49521595     0.16800
O1495       O  0.37859571  0.70344548  0.50614660    -0.25600
C1496       C  0.36299022  0.70071982  0.51104914     0.06600
C1497       C  0.35170492  0.71224257  0.50465470    -0.30500
O1498       O  0.36826674  0.75527885  0.46485163    -0.22300
C1499       C  0.38364754  0.75744858  0.45910951    -0.02300
C1500       C  0.39527861  0.74694982  0.46664346    -0.16700
H1501       H  0.40318586  0.71971974  0.48854547     0.21300
H1502       H  0.34405999  0.74003763  0.48361147     0.19600
H1503       H  0.33832541  0.71261050  0.50624997     0.19600
H1504       H  0.40838472  0.74559492  0.46378919     0.15500
C1505       C  0.36229023  0.85727812  0.39907345     0.30900
C1506       C  0.36457966  0.87459038  0.39814449    -0.35400
C1507       C  0.35256945  0.88348743  0.38900951     0.16900
C1508       C  0.33917978  0.87587677  0.38139464     0.22700
C1509       C  0.33688123  0.85858119  0.38234734    -0.33600
C1510       C  0.34893482  0.84967801  0.39139069     0.16800
O1511       O  0.37246914  0.84647522  0.40619519    -0.25600
C1512       C  0.36556429  0.83175075  0.40302690     0.06600
C1513       C  0.35089507  0.83298938  0.39384844    -0.30500
O1514       O  0.32994242  0.88642252  0.37279304    -0.22300
C1515       C  0.33747943  0.90101066  0.37489768    -0.02300
C1516       C  0.35163751  0.89993949  0.38488745    -0.16700
H1517       H  0.37521947  0.88063596  0.40376800     0.21300
H1518       H  0.32665673  0.85244128  0.37608687     0.19600
H1519       H  0.34314822  0.82301579  0.38917791     0.19600
H1520       H  0.36031458  0.90971817  0.38808346     0.15500
C1521       C  0.48473155  0.82549566  0.37527887     0.30900
C1522       C  0.47275943  0.82935722  0.38744937    -0.35400
C1523       C  0.46275104  0.81607830  0.39277607     0.16900
C1524       C  0.46446034  0.80011869  0.38657870     0.22700
C1525       C  0.47656475  0.79621734  0.37466075    -0.33600
C1526       C  0.48642642  0.80947210  0.36926423     0.16800
O1527       O  0.49471830  0.83610261  0.36769429    -0.25600
C1528       C  0.50279115  0.82667573  0.35666434     0.06600
C1529       C  0.49813928  0.81004265  0.35714589    -0.30500
O1530       O  0.45264344  0.79006802  0.39175752    -0.22300
C1531       C  0.44326073  0.79961649  0.40152311    -0.02300
C1532       C  0.44903111  0.81589568  0.40275992    -0.16700
H1533       H  0.47089623  0.84193792  0.39191813     0.21300
H1534       H  0.47767004  0.78387079  0.36935933     0.19600
H1535       H  0.50252900  0.79989497  0.34941014     0.19600
H1536       H  0.44312893  0.82637433  0.40888155     0.15500
C1537       C  0.48005671  0.65016366  0.88094890     0.30900
C1538       C  0.46617913  0.64599365  0.89073454    -0.35400
C1539       C  0.45697445  0.65944595  0.89727128     0.16900
C1540       C  0.46115448  0.67583136  0.89436250     0.22700
C1541       C  0.47500071  0.67997513  0.88468178    -0.33600
C1542       C  0.48411287  0.66659114  0.87813694     0.16800
O1543       O  0.49004261  0.63970716  0.87296021    -0.25600
C1544       C  0.50054108  0.64967081  0.86495071     0.06600
C1545       C  0.49737639  0.66647017  0.86771886    -0.30500
O1546       O  0.45004381  0.68641933  0.90024990    -0.22300
C1547       C  0.43855686  0.67677757  0.90712559    -0.02300
C1548       C  0.44226231  0.65986091  0.90575552    -0.16700
H1549       H  0.46250879  0.63320577  0.89267304     0.21300
H1550       H  0.47809859  0.69276583  0.88192827     0.19600
H1551       H  0.50375556  0.67708403  0.86250577     0.19600
H1552       H  0.43456701  0.64941639  0.90925575     0.15500
C1553       C  0.47543235  0.61721370  0.74203124     0.30900
C1554       C  0.48607402  0.62936999  0.74877141    -0.35400
C1555       C  0.49548461  0.62453418  0.76273003     0.16900
C1556       C  0.49439720  0.60886181  0.76961949     0.22700
C1557       C  0.48401044  0.59665069  0.76271347    -0.33600
C1558       C  0.47472079  0.60143470  0.74872199     0.16800
O1559       O  0.46457087  0.61935871  0.72983110    -0.25600
C1560       C  0.45699464  0.60467796  0.72858145     0.06600
C1561       C  0.46289558  0.59304768  0.73995352    -0.30500
O1562       O  0.50338549  0.60732418  0.78328377    -0.22300
C1563       C  0.51051216  0.62213737  0.78512759    -0.02300
C1564       C  0.50611115  0.63334158  0.77266373    -0.16700
H1565       H  0.48659433  0.64185723  0.74380999     0.21300
H1566       H  0.48287532  0.58441836  0.76817111     0.19600
H1567       H  0.45840653  0.58055574  0.74209834     0.19600
H1568       H  0.50967213  0.64626123  0.77150541     0.15500
C1569       C  0.60751221  0.59773363  0.83812917     0.30900
C1570       C  0.62485665  0.59937610  0.83683100    -0.35400
C1571       C  0.63440628  0.58895927  0.84707503     0.16900
C1572       C  0.62737082  0.57751770  0.85770117     0.22700
C1573       C  0.61000126  0.57583147  0.85896562    -0.33600
C1574       C  0.60042558  0.58646488  0.84890536     0.16800
O1575       O  0.59634692  0.60730449  0.83083335    -0.25600
C1576       C  0.58188796  0.60225830  0.83706195     0.06600
C1577       C  0.58363155  0.58928691  0.84838577    -0.30500
O1578       O  0.63857552  0.57000599  0.86708214    -0.22300
C1579       C  0.65294282  0.57677342  0.86246344    -0.02300
C1580       C  0.65112830  0.58862152  0.85002541    -0.16700
H1581       H  0.63048763  0.60868577  0.82896218     0.21300
H1582       H  0.60436094  0.56739627  0.86775655     0.19600
H1583       H  0.57406195  0.58345876  0.85579713     0.19600
H1584       H  0.66060478  0.59649184  0.84466001     0.15500
C1585       C  0.96143840  0.32677276  0.88978827     0.30900
C1586       C  0.97893196  0.32728603  0.88950424    -0.35400
C1587       C  0.98609460  0.33567737  0.87599301     0.16900
C1588       C  0.97669150  0.34309676  0.86364381     0.22700
C1589       C  0.95925921  0.34290538  0.86411708    -0.33600
C1590       C  0.95213709  0.33444198  0.87752140     0.16800
O1591       O  0.95214103  0.31798565  0.90008769    -0.25600
C1592       C  0.93673520  0.32012171  0.89426867     0.06600
C1593       C  0.93603503  0.33029880  0.88033442    -0.30500
O1594       O  0.98579541  0.34811783  0.85101433    -0.22300
C1595       C  0.00125908  0.34398515  0.85533640    -0.02300
C1596       C  0.00223292  0.33638959  0.87083817    -0.16700
H1597       H  0.98642909  0.32072976  0.89858321     0.21300
H1598       H  0.95177748  0.34803323  0.85414819     0.19600
H1599       H  0.92530062  0.33329513  0.87272460     0.19600
H1600       H  0.01301485  0.33071200  0.87664295     0.15500
C1601       C  0.75963128  0.48773146  0.85505296     0.30900
C1602       C  0.74524992  0.49681107  0.85073870    -0.35400
C1603       C  0.73797743  0.50634733  0.86351423     0.16900
C1604       C  0.74433102  0.50682866  0.87947290     0.22700
C1605       C  0.75859033  0.49763046  0.88381770    -0.33600
C1606       C  0.76594019  0.48823568  0.87102467     0.16800
O1607       O  0.76905975  0.47883628  0.84485896    -0.25600
C1608       C  0.78158607  0.47361688  0.85444563     0.06600
C1609       C  0.78025639  0.47908638  0.87082738    -0.30500
O1610       O  0.73641585  0.51760014  0.88909149    -0.22300
C1611       C  0.72481518  0.52413747  0.87919198    -0.02300
C1612       C  0.72514456  0.51752622  0.86315962    -0.16700
H1613       H  0.74043120  0.49692640  0.83816416     0.21300
H1614       H  0.76396644  0.49827296  0.89615126     0.19600
H1615       H  0.78887698  0.47702909  0.88099064     0.19600
H1616       H  0.71767042  0.52116042  0.85254616     0.15500
C1617       C  0.84711213  0.38684016  0.88344776     0.30900
C1618       C  0.85829398  0.37942957  0.89470478    -0.35400
C1619       C  0.85774525  0.36198375  0.89579952     0.16900
C1620       C  0.84707487  0.35240594  0.88633509     0.22700
C1621       C  0.83558139  0.35985146  0.87538674    -0.33600
C1622       C  0.83601482  0.37732621  0.87441727     0.16800
O1623       O  0.84653104  0.40277164  0.87936772    -0.25600
C1624       C  0.83470349  0.40354255  0.86775050     0.06600
C1625       C  0.82764951  0.38809644  0.86428150    -0.30500
O1626       O  0.84991943  0.33625807  0.88805878    -0.22300
C1627       C  0.86238527  0.33548393  0.89901224    -0.02300
C1628       C  0.86764529  0.35112294  0.90431434    -0.16700
H1629       H  0.86726279  0.38670175  0.90163638     0.21300
H1630       H  0.82734246  0.35250766  0.86766520     0.19600
H1631       H  0.81845461  0.38510229  0.85488582     0.19600
H1632       H  0.87804018  0.35406319  0.91238255     0.15500
C1633       C  0.84593916  0.40028506  0.77663420     0.30900
C1634       C  0.85844050  0.38956079  0.77085318    -0.35400
C1635       C  0.86127388  0.38970903  0.75371056     0.16900
C1636       C  0.85230977  0.39962408  0.74289012     0.22700
C1637       C  0.83939821  0.41002440  0.74863911    -0.33600
C1638       C  0.83665459  0.41000192  0.76589516     0.16800
O1639       O  0.84327869  0.40403024  0.79232152    -0.25600
C1640       C  0.83203410  0.41619224  0.79177568     0.06600
C1641       C  0.82724560  0.42034108  0.77565535    -0.30500
O1642       O  0.85879080  0.39969955  0.72781589    -0.22300
C1643       C  0.87199063  0.38967430  0.72906267    -0.02300
C1644       C  0.87402680  0.38299201  0.74483865    -0.16700
H1645       H  0.86631492  0.38259406  0.77929283     0.21300
H1646       H  0.83286043  0.41847482  0.74043014     0.19600
H1647       H  0.81941718  0.43059761  0.77171142     0.19600
H1648       H  0.88433486  0.37561241  0.74948630     0.15500
C1649       C  0.98900553  0.16797754  0.37415950     0.30900
C1650       C  0.98168060  0.18096602  0.38328378    -0.35400
C1651       C  0.96669352  0.17721129  0.39130033     0.16900
C1652       C  0.95939344  0.16171089  0.39044475     0.22700
C1653       C  0.96684678  0.14862215  0.38145470    -0.33600
C1654       C  0.98186899  0.15239508  0.37338579     0.16800
O1655       O  0.00229187  0.16921705  0.36468662    -0.25600
C1656       C  0.00383733  0.15422361  0.35779503     0.06600
C1657       C  0.99151577  0.14317597  0.36278663    -0.30500
O1658       O  0.94449351  0.16151295  0.39735051    -0.22300
C1659       C  0.94226375  0.17706579  0.40271374    -0.02300
C1660       C  0.95573036  0.18734008  0.39938139    -0.16700
H1661       H  0.98692111  0.19334754  0.38349794     0.21300
H1662       H  0.96096799  0.13659099  0.38021644     0.19600
H1663       H  0.98950441  0.13053491  0.35859045     0.19600
H1664       H  0.95668205  0.20063344  0.40134423     0.15500
C1665       C  0.24141582  0.01011606  0.37698924     0.30900
C1666       C  0.25181270  0.99751680  0.38344314    -0.35400
C1667       C  0.26127932  0.98844793  0.37177761     0.16900
C1668       C  0.26051800  0.99154516  0.35492414     0.22700
C1669       C  0.25010997  0.00407662  0.34848222    -0.33600
C1670       C  0.24069169  0.01313870  0.36012316     0.16800
O1671       O  0.23214447  0.02067552  0.38566204    -0.25600
C1672       C  0.22534092  0.03055436  0.37417892     0.06600
C1673       C  0.23023909  0.02640220  0.35808340    -0.30500
O1674       O  0.27103251  0.98223902  0.34632194    -0.22300
C1675       C  0.27869055  0.97298886  0.35775911    -0.02300
C1676       C  0.27309962  0.97630728  0.37384173    -0.16700
H1677       H  0.25277048  0.99522536  0.39666286     0.21300
H1678       H  0.24969836  0.00684971  0.33532932     0.19600
H1679       H  0.22704395  0.03265625  0.34660092     0.19600
H1680       H  0.27757924  0.97104035  0.38539713     0.15500
C1681       C  0.10117891  0.10037832  0.34167355     0.30900
C1682       C  0.10882126  0.09023439  0.35368526    -0.35400
C1683       C  0.12627432  0.08922902  0.35304619     0.16900
C1684       C  0.13563984  0.09774383  0.34150539     0.22700
C1685       C  0.12797425  0.10763313  0.32928026    -0.33600
C1686       C  0.11049502  0.10852538  0.32982957     0.16800
O1687       O  0.08517771  0.10423607  0.34087797    -0.25600
C1688       C  0.08418244  0.11483756  0.32821484     0.06600
C1689       C  0.09954049  0.11786693  0.32081799    -0.30500
O1690       O  0.15183621  0.09614839  0.34412162    -0.22300
C1691       C  0.15282774  0.08626621  0.35735946    -0.02300
C1692       C  0.13731808  0.08152557  0.36336301    -0.16700
H1693       H  0.10170631  0.08404018  0.36324017     0.21300
H1694       H  0.13515535  0.11462167  0.32034350     0.19600
H1695       H  0.10236092  0.12655276  0.31096323     0.19600
H1696       H  0.13459616  0.07422775  0.37431147     0.15500
C1697       C  0.86468568  0.24780314  0.96771315     0.30900
C1698       C  0.85175709  0.23807173  0.97425354    -0.35400
C1699       C  0.85602663  0.22760089  0.98757352     0.16900
C1700       C  0.87197797  0.22662003  0.99392999     0.22700
C1701       C  0.88486247  0.23657232  0.98756287    -0.33600
C1702       C  0.88055524  0.24716266  0.97431121     0.16800
O1703       O  0.86364941  0.25767055  0.95464054    -0.25600
C1704       C  0.87900142  0.26364825  0.95289940     0.06600
C1705       C  0.89005169  0.25757251  0.96484378    -0.30500
O1706       O  0.87347902  0.21500686  0.00546940    -0.22300
C1707       C  0.85823673  0.20859576  0.00667499    -0.02300
C1708       C  0.84685166  0.21605629  0.99590936    -0.16700
H1709       H  0.83933593  0.23830018  0.96900865     0.21300
H1710       H  0.89746648  0.23575981  0.99228536     0.19600
H1711       H  0.90328358  0.25988007  0.96590077     0.19600
H1712       H  0.83393441  0.21280213  0.99388022     0.15500
C1713       C  0.83982336  0.07523817  0.26844454     0.30900
C1714       C  0.84123491  0.07421223  0.25104345    -0.35400
C1715       C  0.85368397  0.08405082  0.24376004     0.16900
C1716       C  0.86394558  0.09432177  0.25295394     0.22700
C1717       C  0.86232980  0.09558546  0.27029050    -0.33600
C1718       C  0.85005261  0.08559412  0.27757386     0.16800
O1719       O  0.83038397  0.06575806  0.27796752    -0.25600
C1720       C  0.83466173  0.07008784  0.29339129     0.06600
C1721       C  0.84681546  0.08239593  0.29386141    -0.30500
O1722       O  0.87612457  0.10067058  0.24400517    -0.22300
C1723       C  0.87366108  0.09445635  0.22884205    -0.02300
C1724       C  0.85976299  0.08416154  0.22792128    -0.16700
H1725       H  0.83385027  0.06558518  0.24380844     0.21300
H1726       H  0.87077993  0.10301219  0.27769728     0.19600
H1727       H  0.85308734  0.08749054  0.30465213     0.19600
H1728       H  0.85569975  0.07663225  0.21750821     0.15500
C1729       C  0.97537135  0.12408376  0.23312040     0.30900
C1730       C  0.98277540  0.13793264  0.24097865    -0.35400
C1731       C  0.99530103  0.13444354  0.25279100     0.16900
C1732       C  0.00019482  0.11841422  0.25655814     0.22700
C1733       C  0.99295860  0.10461227  0.24855568    -0.33600
C1734       C  0.98041744  0.10808852  0.23681600     0.16800
O1735       O  0.96266086  0.12440203  0.22259660    -0.25600
C1736       C  0.95951375  0.10839395  0.21944039     0.06600
C1737       C  0.97024573  0.09770017  0.22793958    -0.30500
O1738       O  0.01115228  0.11786175  0.26883950    -0.22300
C1739       C  0.01347869  0.13374470  0.27303372    -0.02300
C1740       C  0.00397899  0.14465073  0.26337731    -0.16700
H1741       H  0.97865213  0.15051677  0.23848081     0.21300
H1742       H  0.99645116  0.09199223  0.25171143     0.19600
H1743       H  0.97008413  0.08423699  0.22812994     0.19600
H1744       H  0.00294603  0.15803265  0.26458950     0.15500
C1745       C  0.89330373  0.13917304  0.13075170     0.30900
C1746       C  0.88236854  0.15072831  0.12343312    -0.35400
C1747       C  0.88269990  0.15163149  0.10600109     0.16900
C1748       C  0.89306862  0.14183063  0.09638350     0.22700
C1749       C  0.90434998  0.13060603  0.10373208    -0.33600
C1750       C  0.90399470  0.12967752  0.12118194     0.16800
O1751       O  0.89382886  0.13510487  0.14665187    -0.25600
C1752       C  0.90510684  0.12292722  0.14734136     0.06600
C1753       C  0.91194014  0.11912169  0.13187342    -0.30500
O1754       O  0.88991515  0.14328642  0.08031063    -0.22300
C1755       C  0.87749361  0.15430648  0.07962080    -0.02300
C1756       C  0.87261745  0.16003006  0.09522663    -0.16700
H1757       H  0.87361082  0.15789955  0.13076252     0.21300
H1758       H  0.91222658  0.12253767  0.09633193     0.19600
H1759       H  0.92074006  0.10934366  0.12882982     0.19600
H1760       H  0.86230403  0.16820986  0.09823426     0.15500
C1761       C  0.39178253  0.45759876  0.81751219     0.30900
C1762       C  0.38725294  0.46728971  0.83140434    -0.35400
C1763       C  0.37599087  0.48038295  0.82834679     0.16900
C1764       C  0.36959332  0.48356039  0.81272110     0.22700
C1765       C  0.37429638  0.47408167  0.79885868    -0.33600
C1766       C  0.38562411  0.46115550  0.80187812     0.16800
O1767       O  0.40088539  0.44385830  0.81766459    -0.25600
C1768       C  0.40069850  0.43875083  0.80188037     0.06600
C1769       C  0.39150116  0.44912168  0.79151573    -0.30500
O1770       O  0.35857113  0.49571095  0.81273398    -0.22300
C1771       C  0.35793978  0.50057496  0.82852722    -0.02300
C1772       C  0.36855858  0.49154688  0.83886694    -0.16700
H1773       H  0.39176439  0.46449680  0.84377671     0.21300
H1774       H  0.36910363  0.47633294  0.78663884     0.19600
H1775       H  0.38848259  0.44730393  0.77851332     0.19600
H1776       H  0.37017176  0.49271751  0.85218199     0.15500
C1777       C  0.40122541  0.35604368  0.85844876     0.30900
C1778       C  0.40208968  0.35764971  0.87588083    -0.35400
C1779       C  0.39138840  0.34736503  0.88510736     0.16900
C1780       C  0.38077219  0.33611271  0.87766089     0.22700
C1781       C  0.37998255  0.33444714  0.86027250    -0.33600
C1782       C  0.39048813  0.34486172  0.85107070     0.16800
O1783       O  0.40903420  0.36536521  0.84742469    -0.25600
C1784       C  0.40316990  0.36012202  0.83280187     0.06600
C1785       C  0.39162781  0.34734793  0.83433509    -0.30500
O1786       O  0.37118456  0.32842349  0.88849986    -0.22300
C1787       C  0.37559891  0.33480318  0.90316638    -0.02300
C1788       C  0.38813466  0.34669303  0.90180993    -0.16700
H1789       H  0.41006235  0.36673892  0.88180315     0.21300
H1790       H  0.37129991  0.32606029  0.85431006     0.19600
H1791       H  0.38449521  0.34136882  0.82458673     0.19600
H1792       H  0.39357086  0.35418800  0.91159971     0.15500
C1793       C  0.25946641  0.36072142  0.89047201     0.30900
C1794       C  0.27684422  0.35925968  0.88964045    -0.35400
C1795       C  0.28414045  0.34744440  0.90021053     0.16900
C1796       C  0.27503848  0.33756472  0.91084176     0.22700
C1797       C  0.25757240  0.33877467  0.91140926    -0.33600
C1798       C  0.25025369  0.35071108  0.90088859     0.16800
O1799       O  0.25042168  0.37252647  0.88344680    -0.25600
C1800       C  0.23516356  0.37001019  0.88931502     0.06600
C1801       C  0.23429459  0.35651257  0.90010319    -0.30500
O1802       O  0.28463063  0.32885376  0.92105302    -0.22300
C1803       C  0.30003219  0.33325651  0.91683155    -0.02300
C1804       C  0.30042093  0.34467972  0.90388835    -0.16700
H1805       H  0.28425805  0.36752351  0.88209213     0.21300
H1806       H  0.25029525  0.33168096  0.92018068     0.19600
H1807       H  0.22377921  0.35256962  0.90749167     0.19600
H1808       H  0.31114022  0.35099599  0.89880063     0.15500
C1809       C  0.39392780  0.96150280  0.15907259     0.30900
C1810       C  0.39252359  0.97895769  0.15915610    -0.35400
C1811       C  0.37970017  0.98574558  0.14930014     0.16900
C1812       C  0.36907100  0.97601497  0.13992936     0.22700
C1813       C  0.37073607  0.95865222  0.13951291    -0.33600
C1814       C  0.38343227  0.95189554  0.14943229     0.16800
O1815       O  0.40348816  0.95241524  0.16898351    -0.25600
C1816       C  0.39905811  0.93681857  0.16554377     0.06600
C1817       C  0.38673339  0.93580309  0.15339679    -0.30500
O1818       O  0.35659859  0.98460560  0.13352415    -0.22300
C1819       C  0.35926089  0.00009605  0.13872141    -0.02300
C1820       C  0.37355644  0.00159015  0.14845699    -0.16700
H1821       H  0.40016259  0.98662784  0.16717206     0.21300
H1822       H  0.36201931  0.95087510  0.13280437     0.19600
H1823       H  0.38022024  0.92483350  0.14907724     0.19600
H1824       H  0.37787048  0.01242934  0.15519849     0.15500
C1825       C  0.37675521  0.23880418  0.00834253     0.30900
C1826       C  0.38314342  0.25020786  0.99675458    -0.35400
C1827       C  0.37137496  0.26001579  0.98819392     0.16900
C1828       C  0.35444405  0.25854223  0.99066255     0.22700
C1829       C  0.34805149  0.24709141  0.00220819    -0.33600
C1830       C  0.35983202  0.23746101  0.01094556     0.16800
O1831       O  0.38556413  0.22930171  0.01853894    -0.25600
C1832       C  0.37415764  0.22181124  0.02789597     0.06600
C1833       C  0.35792983  0.22642078  0.02369127    -0.30500
O1834       O  0.34574076  0.26956193  0.98200551    -0.22300
C1835       C  0.35722754  0.27832232  0.97391986    -0.02300
C1836       C  0.37340043  0.27289545  0.97731549    -0.16700
H1837       H  0.39640227  0.25175360  0.99497558     0.21300
H1838       H  0.33483695  0.24617907  0.00464558     0.19600
H1839       H  0.34645108  0.22269203  0.02962456     0.19600
H1840       H  0.38498307  0.27809468  0.97288950     0.15500
C1841       C  0.33058963  0.10701293  0.10528265     0.30900
C1842       C  0.32995894  0.12446743  0.10642803    -0.35400
C1843       C  0.34018262  0.13321625  0.09533994     0.16900
C1844       C  0.35018916  0.12533272  0.08378977     0.22700
C1845       C  0.35072982  0.10789978  0.08257232    -0.33600
C1846       C  0.34066682  0.09915723  0.09377774     0.16800
O1847       O  0.32308845  0.09639395  0.11526123    -0.25600
C1848       C  0.32846788  0.08154644  0.11010875     0.06600
C1849       C  0.33941241  0.08251609  0.09676293    -0.30500
O1850       O  0.35969708  0.13582409  0.07556344    -0.22300
C1851       C  0.35579311  0.15064577  0.08192472    -0.02300
C1852       C  0.34367805  0.14978830  0.09425399    -0.16700
H1853       H  0.32255205  0.13076081  0.11576524     0.21300
H1854       H  0.35895943  0.10158194  0.07396567     0.19600
H1855       H  0.34602975  0.07246919  0.09064717     0.19600
H1856       H  0.33887637  0.15978606  0.10193421     0.15500
C1857       C  0.49796654  0.35650727  0.72633615     0.30900
C1858       C  0.48647869  0.35044466  0.73796411    -0.35400
C1859       C  0.47711102  0.36244849  0.74661366     0.16900
C1860       C  0.47895161  0.37932650  0.74414164     0.22700
C1861       C  0.49065432  0.38542131  0.73266500    -0.33600
C1862       C  0.49994552  0.37337701  0.72388565     0.16800
O1863       O  0.50684536  0.34742183  0.71585251    -0.25600
C1864       C  0.51468770  0.35857192  0.70652230     0.06600
C1865       C  0.51091906  0.37493281  0.71101992    -0.30500
O1866       O  0.46789641  0.38822851  0.75259015    -0.22300
C1867       C  0.45888489  0.37687256  0.76058973    -0.02300
C1868       C  0.46414837  0.36065824  0.75736181    -0.16700
H1869       H  0.48444771  0.33725070  0.73961644     0.21300
H1870       H  0.49190510  0.39858951  0.73021437     0.19600
H1871       H  0.51494477  0.38628146  0.70505791     0.19600
H1872       H  0.45864241  0.34917341  0.76164257     0.15500
C1873       C  0.78232013  0.35015041  0.57981318     0.30900
C1874       C  0.77679630  0.36310839  0.59015833    -0.35400
C1875       C  0.75953784  0.36564474  0.59075170     0.16900
C1876       C  0.74845628  0.35612135  0.58170988     0.22700
C1877       C  0.75398508  0.34294532  0.57155626    -0.33600
C1878       C  0.77129003  0.34037363  0.57098467     0.16800
O1879       O  0.79794752  0.34678960  0.57620024    -0.25600
C1880       C  0.79703396  0.33458622  0.56503424     0.06600
C1881       C  0.78074323  0.32998154  0.56132539    -0.30500
O1882       O  0.73310006  0.36197952  0.58249871    -0.22300
C1883       C  0.73434517  0.37531339  0.59228530    -0.02300
C1884       C  0.75048925  0.37810793  0.59790771    -0.16700
H1885       H  0.78541490  0.37118847  0.59662825     0.21300
H1886       H  0.74546398  0.33577598  0.56397674     0.19600
H1887       H  0.77650433  0.32117699  0.55204362     0.19600
H1888       H  0.75510957  0.38862472  0.60495598     0.15500
C1889       C  0.60264965  0.38986797  0.64141176     0.30900
C1890       C  0.61011298  0.40270464  0.63224403    -0.35400
C1891       C  0.62755473  0.40192653  0.63075671     0.16900
C1892       C  0.63699331  0.38935845  0.63775545     0.22700
C1893       C  0.62957969  0.37677603  0.64724057    -0.33600
C1894       C  0.61218545  0.37758186  0.64876579     0.16800
O1895       O  0.58648402  0.38721490  0.64306215    -0.25600
C1896       C  0.58571068  0.37313664  0.65173536     0.06600
C1897       C  0.60132019  0.36669821  0.65573392    -0.30500
O1898       O  0.65284041  0.39009515  0.63344905    -0.22300
C1899       C  0.65365978  0.40344371  0.62372617    -0.02300
C1900       C  0.63831065  0.41135037  0.62168956    -0.16700
H1901       H  0.60278899  0.41220879  0.62609831     0.21300
H1902       H  0.63679189  0.36664786  0.65245687     0.19600
H1903       H  0.60420949  0.35512034  0.66197628     0.19600
H1904       H  0.63533924  0.42185077  0.61380764     0.15500
C1905       C  0.88657689  0.95568011  0.31550794     0.30900
C1906       C  0.88120513  0.96502776  0.32932425    -0.35400
C1907       C  0.87189468  0.97943752  0.32578079     0.16900
C1908       C  0.86814152  0.98424773  0.30973612     0.22700
C1909       C  0.87366961  0.97504407  0.29595129    -0.33600
C1910       C  0.88293567  0.96065920  0.29949157     0.16800
O1911       O  0.89420640  0.94109483  0.31594607    -0.25600
C1912       C  0.89550132  0.93670652  0.30000872     0.06600
C1913       C  0.88874479  0.94844738  0.28921982    -0.30500
O1914       O  0.85835083  0.99742090  0.30923609    -0.22300
C1915       C  0.85586145  0.00124544  0.32514359    -0.02300
C1916       C  0.86404489  0.99054425  0.33605037    -0.16700
H1917       H  0.88360065  0.96102652  0.34194067     0.21300
H1918       H  0.87044495  0.97853141  0.28336039     0.19600
H1919       H  0.88739299  0.94761260  0.27584969     0.19600
H1920       H  0.86366264  0.99053085  0.34950041     0.15500
C1921       C  0.88844181  0.84374170  0.35164491     0.30900
C1922       C  0.88108768  0.83039163  0.36017242    -0.35400
C1923       C  0.87874282  0.83262145  0.37737895     0.16900
C1924       C  0.88332607  0.84698862  0.38562205     0.22700
C1925       C  0.89101556  0.86013840  0.37718668    -0.33600
C1926       C  0.89335575  0.85790762  0.36003572     0.16800
O1927       O  0.89054801  0.84497328  0.33536169    -0.25600
C1928       C  0.89709868  0.86005525  0.33338532     0.06600
C1929       C  0.89917556  0.86857964  0.34832690    -0.30500
O1930       O  0.87829970  0.84725401  0.40124534    -0.22300
C1931       C  0.87047047  0.83281968  0.40314551    -0.02300
C1932       C  0.87049878  0.82313399  0.38873605    -0.16700
H1933       H  0.87681337  0.81936256  0.35373525     0.21300
H1934       H  0.89425113  0.87163181  0.38342037     0.19600
H1935       H  0.90359472  0.88115830  0.35018494     0.19600
H1936       H  0.86421347  0.81143102  0.38658888     0.15500
C1937       C  0.76930771  0.83735004  0.40496134     0.30900
C1938       C  0.75185990  0.83878381  0.40541943    -0.35400
C1939       C  0.74485745  0.85163360  0.39581769     0.16900
C1940       C  0.75437194  0.86213986  0.38618587     0.22700
C1941       C  0.77171214  0.86035263  0.38529382    -0.33600
C1942       C  0.77870899  0.84775106  0.39510909     0.16800
O1943       O  0.77859246  0.82829901  0.41512269    -0.25600
C1944       C  0.79408739  0.83300278  0.41169843     0.06600
C1945       C  0.79488178  0.84492585  0.39923208    -0.30500
O1946       O  0.74576196  0.87486901  0.38039004    -0.22300
C1947       C  0.73050346  0.87254932  0.38631263    -0.02300
C1948       C  0.72914310  0.85817749  0.39585209    -0.16700
H1949       H  0.74441468  0.83136654  0.41377496     0.21300
H1950       H  0.77934629  0.86911791  0.37856643     0.19600
H1951       H  0.80569361  0.85172099  0.39501832     0.19600
H1952       H  0.71858979  0.85411319  0.40312102     0.15500
C1953       C  0.87551401  0.48909227  0.66700968     0.30900
C1954       C  0.88110359  0.48023432  0.68095507    -0.35400
C1955       C  0.89092114  0.46614989  0.67770228     0.16900
C1956       C  0.89498509  0.46108073  0.66180371     0.22700
C1957       C  0.88961839  0.47014355  0.64782181    -0.33600
C1958       C  0.87975787  0.48427099  0.65107899     0.16800
O1959       O  0.86499770  0.50170214  0.66722137    -0.25600
C1960       C  0.86249051  0.50514094  0.65124244     0.06600
C1961       C  0.87145125  0.49479234  0.64057935    -0.30500
O1962       O  0.90275487  0.44655315  0.66162151    -0.22300
C1963       C  0.90378466  0.44236181  0.67761492    -0.02300
C1964       C  0.89670356  0.45415292  0.68816494    -0.16700
H1965       H  0.87740750  0.48365038  0.69344235     0.21300
H1966       H  0.89228381  0.46603382  0.63528028     0.19600
H1967       H  0.87114709  0.49448001  0.62712755     0.19600
H1968       H  0.89490189  0.45335410  0.70147406     0.15500
C1969       C  0.76745431  0.49588781  0.60791998     0.30900
C1970       C  0.76173587  0.48495409  0.59548586    -0.35400
C1971       C  0.74728891  0.47588353  0.59923945     0.16900
C1972       C  0.73911374  0.47735238  0.61425151     0.22700
C1973       C  0.74475382  0.48839602  0.62661761    -0.33600
C1974       C  0.75912034  0.49755943  0.62282198     0.16800
O1975       O  0.78110798  0.50499522  0.60735352    -0.25600
C1976       C  0.78148125  0.51272103  0.62203818     0.06600
C1977       C  0.76806914  0.50860412  0.63214984    -0.30500
O1978       O  0.72643810  0.46698344  0.61551522    -0.22300
C1979       C  0.72633530  0.45887115  0.60104401    -0.02300
C1980       C  0.73902256  0.46393590  0.59041626    -0.16700
H1981       H  0.76828134  0.48338110  0.58383829     0.21300
H1982       H  0.73857129  0.48950984  0.63850867     0.19600
H1983       H  0.76562496  0.51267561  0.64475135     0.19600
H1984       H  0.74214253  0.45899641  0.57827728     0.15500
C1985       C  0.86677890  0.76419061  0.48585014     0.30900
C1986       C  0.88069431  0.75736348  0.49396808    -0.35400
C1987       C  0.87761235  0.74391997  0.50458479     0.16900
C1988       C  0.86187794  0.73759465  0.50713286     0.22700
C1989       C  0.84791521  0.74429167  0.49878096    -0.33600
C1990       C  0.85102041  0.75778654  0.48808264     0.16800
O1991       O  0.86683023  0.77746868  0.47626811    -0.25600
C1992       C  0.85092903  0.77965969  0.47209724     0.06600
C1993       C  0.84046804  0.76772034  0.47902374    -0.30500
O1994       O  0.86175303  0.72590200  0.51870022    -0.22300
C1995       C  0.87764406  0.72465885  0.52349796    -0.02300
C1996       C  0.88804461  0.73553118  0.51504281    -0.16700
H1997       H  0.89302065  0.76255186  0.49252801     0.21300
H1998       H  0.83545756  0.73968173  0.50090366     0.19600
H1999       H  0.82704214  0.76692391  0.47810430     0.19600
H2000       H  0.90120349  0.73765275  0.51704309     0.15500
C2001       C  0.84942140  0.60079407  0.59216555     0.30900
C2002       C  0.86236199  0.60818274  0.58312069    -0.35400
C2003       C  0.86171856  0.62558363  0.58171804     0.16900
C2004       C  0.84924061  0.63510426  0.58878411     0.22700
C2005       C  0.83612389  0.62768271  0.59757503    -0.33600
C2006       C  0.83674172  0.61026319  0.59893877     0.16800
O2007       O  0.84842641  0.58494355  0.59630607    -0.25600
C2008       C  0.83483887  0.58418427  0.60572307     0.06600
C2009       C  0.82700382  0.59955624  0.60770442    -0.30500
O2010       O  0.85183669  0.65123916  0.58708382    -0.22300
C2011       C  0.86608343  0.65205569  0.57867799    -0.02300
C2012       C  0.87273115  0.63646929  0.57492226    -0.16700
H2013       H  0.87257163  0.60093441  0.57809250     0.21300
H2014       H  0.82646849  0.63502007  0.60348330     0.19600
H2015       H  0.81638251  0.60257838  0.61542745     0.19600
H2016       H  0.88439253  0.63361491  0.56879173     0.15500
C2017       C  0.97171247  0.87524077  0.24247249     0.30900
C2018       C  0.98162516  0.88107512  0.22937562    -0.35400
C2019       C  0.99176813  0.86922160  0.22143197     0.16900
C2020       C  0.99233216  0.85272578  0.22612055     0.22700
C2021       C  0.98247600  0.84688803  0.23935411    -0.33600
C2022       C  0.97214445  0.85874985  0.24720541     0.16800
O2023       O  0.96038274  0.88396845  0.25063218    -0.25600
C2024       C  0.95335944  0.87299639  0.26078697     0.06600
C2025       C  0.96020605  0.85707703  0.25921153    -0.30500
O2026       O  0.00187675  0.84362380  0.21617014    -0.22300
C2027       C  0.00742227  0.85445551  0.20493451    -0.02300
C2028       C  0.00154738  0.87055072  0.20767462    -0.16700
H2029       H  0.98096851  0.89385414  0.22522024     0.21300
H2030       H  0.98237373  0.83389485  0.24284825     0.19600
H2031       H  0.95636709  0.84577902  0.26539166     0.19600
H2032       H  0.00359809  0.88150129  0.20016028     0.15500
C2033       C  0.26730183  0.83548563  0.07055695     0.30900
C2034       C  0.25005844  0.83739880  0.06813477    -0.35400
C2035       C  0.24192523  0.84847733  0.07900064     0.16900
C2036       C  0.25016601  0.85692015  0.09151785     0.22700
C2037       C  0.26725764  0.85464236  0.09423264    -0.33600
C2038       C  0.27539996  0.84379419  0.08325013     0.16800
O2039       O  0.27776732  0.82783640  0.06038351    -0.25600
C2040       C  0.29269999  0.83134121  0.06669429     0.06600
C2041       C  0.29193500  0.84109595  0.08097047    -0.30500
O2042       O  0.24084205  0.86848944  0.09854109    -0.22300
C2043       C  0.22639784  0.86745137  0.09050893    -0.02300
C2044       C  0.22627305  0.85509069  0.07833739    -0.16700
H2045       H  0.24368183  0.83166420  0.05774143     0.21300
H2046       H  0.27398557  0.86183762  0.10342737     0.19600
H2047       H  0.30215835  0.84657401  0.08784072     0.19600
H2048       H  0.21664665  0.85252307  0.06925055     0.15500
C2049       C  0.25584481  0.98969501  0.12638156     0.30900
C2050       C  0.24466653  0.97764643  0.13224213    -0.35400
C2051       C  0.23545067  0.96905035  0.12009729     0.16900
C2052       C  0.23708140  0.97206242  0.10329886     0.22700
C2053       C  0.24829661  0.98411420  0.09742322    -0.33600
C2054       C  0.25753919  0.99271618  0.10958926     0.16800
O2055       O  0.26609880  0.99873398  0.13555260    -0.25600
C2056       C  0.27450996  0.00773140  0.12452973     0.06600
C2057       C  0.26971639  0.00446605  0.10816507    -0.30500
O2058       O  0.22768412  0.96209879  0.09412491    -0.22300
C2059       C  0.21989963  0.95258843  0.10520490    -0.02300
C2060       C  0.22428014  0.95639146  0.12154740    -0.16700
H2061       H  0.24345079  0.97495263  0.14535529     0.21300
H2062       H  0.24992152  0.98641309  0.08428052     0.19600
H2063       H  0.27481261  0.00963645  0.09686343     0.19600
H2064       H  0.22021776  0.95033331  0.13282875     0.15500
C2065       C  0.12960557  0.88590812  0.13652681     0.30900
C2066       C  0.12207528  0.87427694  0.14707868    -0.35400
C2067       C  0.10463098  0.87503008  0.14808950     0.16900
C2068       C  0.09516430  0.88630364  0.13919188     0.22700
C2069       C  0.10273648  0.89821327  0.12894418    -0.33600
C2070       C  0.12021342  0.89755962  0.12804459     0.16800
O2071       O  0.14556222  0.88647802  0.13260332    -0.25600
C2072       C  0.14645404  0.89880322  0.12161607     0.06600
C2073       C  0.13108537  0.90622947  0.11840921    -0.30500
O2074       O  0.07898405  0.88362496  0.14068466    -0.22300
C2075       C  0.07810977  0.87065715  0.15092751    -0.02300
C2076       C  0.09368100  0.86489412  0.15598954    -0.16700
H2077       H  0.12925576  0.86486716  0.15353274     0.21300
H2078       H  0.09548710  0.90693206  0.12165767     0.19600
H2079       H  0.12821225  0.91589621  0.10949616     0.19600
H2080       H  0.09651416  0.85407685  0.16348883     0.15500
C2081       C  0.17370601  0.88979866  0.01768093     0.30900
C2082       C  0.17937514  0.88136780  0.00348884    -0.35400
C2083       C  0.16721713  0.87310701  0.99409670     0.16900
C2084       C  0.15052558  0.87324541  0.99818288     0.22700
C2085       C  0.14479570  0.88192433  0.01228874    -0.33600
C2086       C  0.15702876  0.89006549  0.02183909     0.16800
O2087       O  0.18323551  0.89646345  0.02926955    -0.25600
C2088       C  0.17260275  0.90114687  0.04106186     0.06600
C2089       C  0.15608399  0.89759473  0.03706144    -0.30500
O2090       O  0.14158175  0.86350040  0.98835115    -0.22300
C2091       C  0.15276220  0.85705080  0.97791598    -0.02300
C2092       C  0.16886277  0.86264777  0.98090168    -0.16700
H2093       H  0.19248549  0.88051871  0.00049933     0.21300
H2094       H  0.13186686  0.88161844  0.01603616     0.19600
H2095       H  0.14519418  0.89898160  0.04486136     0.19600
H2096       H  0.18024732  0.85894744  0.97469424     0.15500
C2097       C  0.09725004  0.84224906  0.84536280     0.30900
C2098       C  0.10670765  0.82971422  0.85313888    -0.35400
C2099       C  0.10758321  0.83046702  0.87058781     0.16900
C2100       C  0.09984880  0.84280872  0.87975198     0.22700
C2101       C  0.09016286  0.85515859  0.87200102    -0.33600
C2102       C  0.08911141  0.85428178  0.85458727     0.16800
O2103       O  0.09582053  0.84472842  0.82917271    -0.25600
C2104       C  0.08639010  0.85836167  0.82802701     0.06600
C2105       C  0.08176188  0.86475347  0.84344772    -0.30500
O2106       O  0.10344053  0.84194507  0.89576878    -0.22300
C2107       C  0.11342773  0.82872805  0.89695222    -0.02300
C2108       C  0.11637819  0.82106066  0.88167424    -0.16700
H2109       H  0.11335535  0.82035236  0.84605925     0.21300
H2110       H  0.08427856  0.86506324  0.87901562     0.19600
H2111       H  0.07490939  0.87608947  0.84604960     0.19600
H2112       H  0.12457082  0.81066156  0.87901895     0.15500
C2113       C  0.31625213  0.37580924  0.00036117     0.30900
C2114       C  0.30215026  0.38288340  0.00795546    -0.35400
C2115       C  0.30481237  0.39077679  0.02331155     0.16900
C2116       C  0.32033187  0.39175813  0.03065511     0.22700
C2117       C  0.33452694  0.38502042  0.02284607    -0.33600
C2118       C  0.33184407  0.37700048  0.00751270     0.16800
O2119       O  0.31623331  0.36639127  0.98690997    -0.25600
C2120       C  0.33202853  0.36153827  0.98525338     0.06600
C2121       C  0.34236880  0.36785557  0.99766880    -0.30500
O2122       O  0.31964253  0.39783000  0.04592345    -0.22300
C2123       C  0.30349120  0.40082736  0.04838577    -0.02300
C2124       C  0.29369945  0.39681438  0.03465964    -0.16700
H2125       H  0.28980998  0.38150613  0.00270245     0.21300
H2126       H  0.34664513  0.38519389  0.02875626     0.19600
H2127       H  0.35546000  0.36528526  0.99968374     0.19600
H2128       H  0.28024713  0.39698545  0.03371777     0.15500
C2129       C  0.35433427  0.39567563  0.13283385     0.30900
C2130       C  0.37172696  0.39734192  0.13170897    -0.35400
C2131       C  0.38124932  0.38595374  0.14097823     0.16900
C2132       C  0.37411567  0.37394287  0.15088443     0.22700
C2133       C  0.35674712  0.37233583  0.15207855    -0.33600
C2134       C  0.34723672  0.38355075  0.14262521     0.16800
O2135       O  0.34315137  0.40399130  0.12408522    -0.25600
C2136       C  0.32870067  0.39707986  0.12825989     0.06600
C2137       C  0.33048373  0.38431808  0.13979995    -0.30500
O2138       O  0.38527470  0.36399578  0.15771752    -0.22300
C2139       C  0.39977245  0.36960512  0.15207926    -0.02300
C2140       C  0.39805618  0.38326369  0.14159000    -0.16700
H2141       H  0.37742790  0.40642469  0.12362975     0.21300
H2142       H  0.35106114  0.36258098  0.15934423     0.19600
H2143       H  0.32094656  0.37620333  0.14466745     0.19600
H2144       H  0.40770655  0.38982472  0.13493147     0.15500
C2145       C  0.40985358  0.27232478  0.14539290     0.30900
C2146       C  0.39568181  0.26431097  0.13889112    -0.35400
C2147       C  0.39870833  0.24998570  0.12924944     0.16900
C2148       C  0.41459292  0.24402126  0.12634673     0.22700
C2149       C  0.42864132  0.25171439  0.13319857    -0.33600
C2150       C  0.42563653  0.26599498  0.14271820     0.16800
O2151       O  0.41020286  0.28714190  0.15255332    -0.25600
C2152       C  0.42639778  0.29021872  0.15451953     0.06600
C2153       C  0.43653260  0.27738516  0.14881588    -0.30500
O2154       O  0.41485301  0.23165989  0.11561710    -0.22300
C2155       C  0.39894636  0.22945582  0.11161685    -0.02300
C2156       C  0.38823610  0.24040511  0.11980974    -0.16700
H2157       H  0.38329421  0.26945731  0.14036412     0.21300
H2158       H  0.44113685  0.24744400  0.13043382     0.19600
H2159       H  0.44997289  0.27724127  0.14775251     0.19600
H2160       H  0.37490278  0.24174712  0.11826768     0.15500
C2161       C  0.49161390  0.34928865  0.22455849     0.30900
C2162       C  0.50471816  0.34355840  0.23468301    -0.35400
C2163       C  0.51241740  0.35555529  0.24483245     0.16900
C2164       C  0.50751652  0.37204140  0.24509096     0.22700
C2165       C  0.49431883  0.37772442  0.23508761    -0.33600
C2166       C  0.48668298  0.36576162  0.22488183     0.16800
O2167       O  0.48344701  0.34051062  0.21328434    -0.25600
C2168       C  0.47311430  0.35150505  0.20633649     0.06600
C2169       C  0.47457192  0.36739307  0.21309389    -0.30500
O2170       O  0.51712563  0.38132856  0.25468992    -0.22300
C2171       C  0.52835388  0.37066514  0.26067404    -0.02300
C2172       C  0.52598201  0.35444283  0.25500643    -0.16700
H2173       H  0.50898415  0.33077011  0.23426135     0.21300
H2174       H  0.49062678  0.39068571  0.23486062     0.19600
H2175       H  0.46816793  0.37865246  0.20933677     0.19600
H2176       H  0.53358166  0.34356391  0.25748146     0.15500
C2177       C  0.64671452  0.37749943  0.50400151     0.30900
C2178       C  0.64283316  0.38390150  0.51983246    -0.35400
C2179       C  0.65521702  0.39367251  0.52746021     0.16900
C2180       C  0.67038634  0.39682216  0.52006070     0.22700
C2181       C  0.67407465  0.39079288  0.50413903    -0.33600
C2182       C  0.66173634  0.38111568  0.49653894     0.16800
O2183       O  0.63784151  0.36667107  0.49528566    -0.25600
C2184       C  0.64734838  0.36348825  0.48207350     0.06600
C2185       C  0.66224481  0.37222977  0.48220203    -0.30500
O2186       O  0.68097072  0.40426583  0.53017037    -0.22300
C2187       C  0.67244350  0.40618073  0.54419656    -0.02300
C2188       C  0.65628312  0.39997984  0.54318681    -0.16700
H2189       H  0.63136429  0.38077490  0.52612179     0.21300
H2190       H  0.68611254  0.39272506  0.49844627     0.19600
H2191       H  0.67246722  0.37132412  0.47348497     0.19600
H2192       H  0.64724229  0.39886090  0.55308465     0.15500
C2193       C  0.59069440  0.34129774  0.35118862     0.30900
C2194       C  0.60162482  0.33027277  0.35921623    -0.35400
C2195       C  0.60202177  0.33123455  0.37662831     0.16900
C2196       C  0.59245132  0.34236636  0.38561413     0.22700
C2197       C  0.58117530  0.35311495  0.37759720    -0.33600
C2198       C  0.58067150  0.35205159  0.36015051     0.16800
O2199       O  0.58972742  0.34380083  0.33499399    -0.25600
C2200       C  0.57873198  0.35614034  0.33352413     0.06600
C2201       C  0.57255770  0.36164305  0.34875504    -0.30500
O2202       O  0.59617205  0.34231272  0.40164965    -0.22300
C2203       C  0.60809679  0.33080212  0.40291646    -0.02300
C2204       C  0.61213004  0.32346633  0.38776242    -0.16700
H2205       H  0.60983431  0.32207329  0.35233777     0.21300
H2206       H  0.57388149  0.36219183  0.38440755     0.19600
H2207       H  0.56436439  0.37211046  0.35112536     0.19600
H2208       H  0.62189246  0.31450007  0.38518298     0.15500
C2209       C  0.08859215  0.75528814  0.11909511     0.30900
C2210       C  0.08948821  0.77260876  0.12080636    -0.35400
C2211       C  0.07894543  0.77975331  0.13272340     0.16900
C2212       C  0.06822464  0.77055729  0.14241498     0.22700
C2213       C  0.06752269  0.75313083  0.14089400    -0.33600
C2214       C  0.07809822  0.74594744  0.12890672     0.16800
O2215       O  0.09579143  0.74642275  0.10729833    -0.25600
C2216       C  0.09001435  0.73112955  0.10961204     0.06600
C2217       C  0.07906199  0.73004232  0.12298493    -0.30500
O2218       O  0.05834028  0.78006051  0.15158953    -0.22300
C2219       C  0.06290581  0.79549200  0.14771368    -0.02300
C2220       C  0.07568413  0.79599758  0.13609114    -0.16700
H2221       H  0.09720358  0.78009352  0.11276256     0.21300
H2222       H  0.05875614  0.74579038  0.14793390     0.19600
H2223       H  0.07170265  0.71945054  0.12675663     0.19600
H2224       H  0.08107270  0.80681030  0.13021049     0.15500
C2225       C  0.11848684  0.73287560  0.00595272     0.30900
C2226       C  0.13197141  0.73933312  0.99687666    -0.35400
C2227       C  0.12822514  0.75229464  0.98571890     0.16900
C2228       C  0.11230288  0.75849859  0.98367411     0.22700
C2229       C  0.09878352  0.75181755  0.99248805    -0.33600
C2230       C  0.10251830  0.73884233  0.00359511     0.16800
O2231       O  0.11936071  0.72177720  0.01805566    -0.25600
C2232       C  0.10370924  0.72046954  0.02341788     0.06600
C2233       C  0.09269184  0.73072565  0.01476722    -0.30500
O2234       O  0.11179712  0.77149390  0.97363852    -0.22300
C2235       C  0.12758007  0.77360593  0.96900887    -0.02300
C2236       C  0.13834540  0.76194062  0.97608589    -0.16700
H2237       H  0.14459615  0.73498747  0.99883583     0.21300
H2238       H  0.08630818  0.75680755  0.99122902     0.19600
H2239       H  0.07954882  0.73266277  0.01707523     0.19600
H2240       H  0.15176032  0.76121424  0.97495675     0.15500
C2241       C  0.21921156  0.49445691  0.11716209     0.30900
C2242       C  0.22737494  0.48601476  0.10415109    -0.35400
C2243       C  0.23910670  0.47385610  0.10886576     0.16900
C2244       C  0.24255486  0.47018973  0.12526854     0.22700
C2245       C  0.23455822  0.47880027  0.13829130    -0.33600
C2246       C  0.22284635  0.49099577  0.13357162     0.16800
O2247       O  0.20705167  0.50550065  0.11556296    -0.25600
C2248       C  0.20287568  0.50930057  0.13115676     0.06600
C2249       C  0.21236447  0.50069094  0.14287896    -0.30500
O2250       O  0.25309814  0.45758180  0.12683087    -0.22300
C2251       C  0.25658281  0.45317835  0.11121319    -0.02300
C2252       C  0.24826380  0.46294195  0.09953151    -0.16700
H2253       H  0.22442408  0.48841185  0.09124345     0.21300
H2254       H  0.23693499  0.47585354  0.15119988     0.19600
H2255       H  0.21118036  0.50097756  0.15627871     0.19600
H2256       H  0.24835293  0.46166169  0.08613188     0.15500
C2257       C  0.13372325  0.63154656  0.09149538     0.30900
C2258       C  0.14661670  0.62398837  0.10060593    -0.35400
C2259       C  0.14551136  0.60667172  0.10259411     0.16900
C2260       C  0.13250074  0.59740845  0.09627196     0.22700
C2261       C  0.11972598  0.60493216  0.08694235    -0.33600
C2262       C  0.12096020  0.62222384  0.08475822     0.16800
O2263       O  0.13173276  0.64767893  0.08897613    -0.25600
C2264       C  0.11764569  0.64866762  0.08026914     0.06600
C2265       C  0.11045715  0.63321927  0.07721755    -0.30500
O2266       O  0.13323846  0.58163919  0.10086800    -0.22300
C2267       C  0.14703556  0.58075631  0.11006935    -0.02300
C2268       C  0.15520690  0.59593817  0.11146329    -0.16700
H2269       H  0.15657081  0.63116197  0.10615034     0.21300
H2270       H  0.10931656  0.59788348  0.08212020     0.19600
H2271       H  0.09874720  0.63058162  0.07107371     0.19600
H2272       H  0.16611503  0.59884920  0.11883199     0.15500
C2273       C  0.57931808  0.24985856  0.62551205     0.30900
C2274       C  0.58443753  0.26332605  0.63544416    -0.35400
C2275       C  0.57165806  0.27344721  0.64189916     0.16900
C2276       C  0.55500006  0.27044219  0.63886579     0.22700
C2277       C  0.54988682  0.25683080  0.62922067    -0.33600
C2278       C  0.56263201  0.24684194  0.62266678     0.16800
O2279       O  0.58910932  0.23976097  0.61691789    -0.25600
C2280       C  0.57849805  0.23023613  0.60847108     0.06600
C2281       C  0.56189768  0.23403112  0.61164572    -0.30500
O2282       O  0.54525711  0.28246485  0.64442463    -0.22300
C2283       C  0.55574277  0.29331341  0.65122621    -0.02300
C2284       C  0.57233749  0.28830014  0.65013125    -0.16700
H2285       H  0.59746641  0.26621540  0.63728914     0.21300
H2286       H  0.53690805  0.25471365  0.62626459     0.19600
H2287       H  0.55090028  0.22864169  0.60601852     0.19600
H2288       H  0.58333702  0.29523896  0.65362583     0.15500
C2289       C  0.60781563  0.23812965  0.50620600     0.30900
C2290       C  0.60242360  0.24823692  0.49296544    -0.35400
C2291       C  0.61445148  0.25884034  0.48603010     0.16900
C2292       C  0.63071184  0.25936832  0.49161287     0.22700
C2293       C  0.63610657  0.24923124  0.50479184    -0.33600
C2294       C  0.62405734  0.23876674  0.51182422     0.16800
O2295       O  0.59844565  0.22809611  0.51523227    -0.25600
C2296       C  0.60883228  0.22228604  0.52682286     0.06600
C2297       C  0.62490982  0.22851381  0.52526907    -0.30500
O2298       O  0.63962452  0.27084234  0.48398354    -0.22300
C2299       C  0.62894263  0.27782354  0.47336858    -0.02300
C2300       C  0.61310190  0.27082326  0.47409606    -0.16700
H2301       H  0.58962454  0.24823317  0.48872579     0.21300
H2302       H  0.64868677  0.24985746  0.50959598     0.19600
H2303       H  0.63552348  0.22629291  0.53329419     0.19600
H2304       H  0.60204528  0.27449132  0.46728495     0.15500
C2305       C  0.63151300  0.12833466  0.58835221     0.30900
C2306       C  0.63200707  0.11090488  0.58721349    -0.35400
C2307       C  0.64013311  0.10258082  0.60023613     0.16900
C2308       C  0.64747238  0.11083405  0.61340215     0.22700
C2309       C  0.64701188  0.12829597  0.61453612    -0.33600
C2310       C  0.63871944  0.13662434  0.60157426     0.16800
O2311       O  0.62331814  0.13841294  0.57829811    -0.25600
C2312       C  0.62522950  0.15338163  0.58514009     0.06600
C2313       C  0.63476484  0.15304449  0.59962944    -0.30500
O2314       O  0.65384375  0.10051835  0.62449992    -0.22300
C2315       C  0.65046702  0.08547165  0.61838808    -0.02300
C2316       C  0.64192444  0.08600035  0.60333790    -0.16700
H2317       H  0.62595914  0.10426828  0.57716957     0.21300
H2318       H  0.65227068  0.13488340  0.62504665     0.19600
H2319       H  0.63746709  0.16322896  0.60803439     0.19600
H2320       H  0.63740350  0.07567548  0.59595559     0.15500
C2321       C  0.99721128  0.85680893  0.71642623     0.30900
C2322       C  0.00827561  0.85056965  0.72845794    -0.35400
C2323       C  0.01788779  0.86238342  0.73702008     0.16900
C2324       C  0.01675004  0.87924187  0.73399941     0.22700
C2325       C  0.00573329  0.88550682  0.72183900    -0.33600
C2326       C  0.99611818  0.87364054  0.71321345     0.16800
O2327       O  0.98723285  0.84787704  0.70688390    -0.25600
C2328       C  0.97962293  0.85906303  0.69731139     0.06600
C2329       C  0.98472819  0.87532223  0.70063644    -0.30500
O2330       O  0.02728594  0.88796608  0.74321212    -0.22300
C2331       C  0.03524604  0.87651615  0.75226032    -0.02300
C2332       C  0.02988985  0.86040164  0.74887463    -0.16700
H2333       H  0.00942268  0.83737619  0.73087181     0.21300
H2334       H  0.00485735  0.89866928  0.71916205     0.19600
H2335       H  0.98074339  0.88666980  0.69456580     0.19600
H2336       H  0.03451198  0.84885733  0.75407070     0.15500
C2337       C  0.90156402  0.78457601  0.63221089     0.30900
C2338       C  0.89123885  0.77872973  0.61939906    -0.35400
C2339       C  0.89049055  0.76142580  0.61742933     0.16900
C2340       C  0.89925153  0.75053578  0.62743837     0.22700
C2341       C  0.90924071  0.75639539  0.64061750    -0.33600
C2342       C  0.91006314  0.77378714  0.64255108     0.16800
O2343       O  0.90584875  0.80020315  0.63456531    -0.25600
C2344       C  0.91711445  0.79959689  0.64670614     0.06600
C2345       C  0.92013741  0.78347357  0.65233321    -0.30500
O2346       O  0.89870669  0.73507599  0.62179785    -0.22300
C2347       C  0.88940100  0.73610172  0.60808295    -0.02300
C2348       C  0.88382620  0.75218183  0.60488366    -0.16700
H2349       H  0.88514618  0.78713472  0.61080543     0.21300
H2350       H  0.91674610  0.74804573  0.64808193     0.19600
H2351       H  0.92946384  0.77938454  0.66117673     0.19600
H2352       H  0.87726684  0.75666330  0.59399325     0.15500
C2353       C  0.74913233  0.97819839  0.62396701     0.30900
C2354       C  0.74179174  0.98681354  0.63733531    -0.35400
C2355       C  0.72957273  0.99869753  0.63321390     0.16900
C2356       C  0.72484724  0.00190963  0.61702945     0.22700
C2357       C  0.73246034  0.99354789  0.60361399    -0.33600
C2358       C  0.74471134  0.98166249  0.60774692     0.16800
O2359       O  0.75970224  0.96557927  0.62509628    -0.25600
C2360       C  0.76229653  0.96098738  0.60937494     0.06600
C2361       C  0.75335292  0.97063456  0.59804493    -0.30500
O2362       O  0.71199060  0.01224612  0.61614954    -0.22300
C2363       C  0.70848670  0.01579782  0.63198566    -0.02300
C2364       C  0.71914608  0.00781306  0.64310636    -0.16700
H2365       H  0.74486803  0.98393064  0.65011506     0.21300
H2366       H  0.72859368  0.99563432  0.59088947     0.19600
H2367       H  0.75258303  0.96909041  0.58469264     0.19600
H2368       H  0.71856310  0.00783924  0.65654961     0.15500
C2369       C  0.85874078  0.90031790  0.62822333     0.30900
C2370       C  0.87614466  0.90182789  0.62727415    -0.35400
C2371       C  0.88544256  0.89072667  0.63707267     0.16900
C2372       C  0.87810136  0.87904688  0.64722066     0.22700
C2373       C  0.86070768  0.87749973  0.64812714    -0.33600
C2374       C  0.85141267  0.88851074  0.63823081     0.16800
O2375       O  0.84772464  0.90878869  0.61943211    -0.25600
C2376       C  0.83313676  0.90232418  0.62381899     0.06600
C2377       C  0.83466744  0.88963465  0.63547422    -0.30500
O2378       O  0.88912160  0.86932970  0.65458441    -0.22300
C2379       C  0.90372216  0.87478195  0.64905208    -0.02300
C2380       C  0.90221508  0.88808129  0.63810034    -0.16700
H2381       H  0.88202225  0.91070176  0.61909190     0.21300
H2382       H  0.85485027  0.86803771  0.65564271     0.19600
H2383       H  0.82493220  0.88196426  0.64066475     0.19600
H2384       H  0.91197728  0.89432918  0.63130616     0.15500
C2385       C  0.80299120  0.89458162  0.52194694     0.30900
C2386       C  0.79729202  0.88548025  0.50817136    -0.35400
C2387       C  0.80955398  0.87735362  0.49873351     0.16900
C2388       C  0.82632735  0.87824334  0.50242848     0.22700
C2389       C  0.83205211  0.88752738  0.51612004    -0.33600
C2390       C  0.81975740  0.89555928  0.52566739     0.16800
O2391       O  0.79354327  0.90136187  0.53354158    -0.25600
C2392       C  0.80434943  0.90683072  0.54484621     0.06600
C2393       C  0.82086192  0.90369405  0.54053692    -0.30500
O2394       O  0.83550048  0.86883109  0.49248096    -0.22300
C2395       C  0.82442146  0.86180263  0.48233447    -0.02300
C2396       C  0.80810691  0.86667247  0.48565999    -0.16700
H2397       H  0.78415095  0.88415110  0.50548183     0.21300
H2398       H  0.84509359  0.88785715  0.51952002     0.19600
H2399       H  0.83191908  0.90570639  0.54798992     0.19600
H2400       H  0.79678701  0.86255791  0.47960587     0.15500
C2401       C  0.99695818  0.65570304  0.10596587     0.30900
C2402       C  0.01034360  0.65047914  0.09595250    -0.35400
C2403       C  0.02011656  0.66316860  0.08901907     0.16900
C2404       C  0.01683248  0.67984948  0.09163259     0.22700
C2405       C  0.00327684  0.68506583  0.10133769    -0.33600
C2406       C  0.99366276  0.67240570  0.10841943     0.16800
O2407       O  0.98742153  0.64604143  0.11519372    -0.25600
C2408       C  0.97798715  0.65673030  0.12370665     0.06600
C2409       C  0.98125236  0.67327282  0.11987645    -0.30500
O2410       O  0.02860899  0.68955192  0.08569268    -0.22300
C2411       C  0.03957271  0.67901434  0.07905503    -0.02300
C2412       C  0.03489550  0.66242044  0.08067850    -0.16700
H2413       H  0.01350361  0.63745751  0.09447530     0.21300
H2414       H  0.00100242  0.69807940  0.10402324     0.19600
H2415       H  0.97592574  0.68434261  0.12546954     0.19600
H2416       H  0.04201846  0.65141474  0.07745164     0.15500
C2417       C  0.88588664  0.59650536  0.13885979     0.30900
C2418       C  0.87887658  0.58577962  0.12690176    -0.35400
C2419       C  0.86136791  0.58495166  0.12658959     0.16900
C2420       C  0.85144278  0.59415124  0.13720742     0.22700
C2421       C  0.85844710  0.60467214  0.14928700    -0.33600
C2422       C  0.87591665  0.60537453  0.14970642     0.16800
O2423       O  0.90186464  0.60015312  0.14058437    -0.25600
C2424       C  0.90212245  0.61133770  0.15285977     0.06600
C2425       C  0.88633223  0.61495608  0.15904235    -0.30500
O2426       O  0.83538690  0.59229434  0.13410474    -0.22300
C2427       C  0.83494937  0.58160053  0.12144115    -0.02300
C2428       C  0.85075893  0.57657097  0.11627513    -0.16700
H2429       H  0.88650895  0.57891823  0.11815940     0.21300
H2430       H  0.85079500  0.61213160  0.15751014     0.19600
H2431       H  0.88294080  0.62410846  0.16835068     0.19600
H2432       H  0.85395642  0.56845055  0.10599629     0.15500
C2433       C  0.74780941  0.50794634  0.12247292     0.30900
C2434       C  0.73964966  0.49991449  0.13570151    -0.35400
C2435       C  0.72718353  0.48842474  0.13126159     0.16900
C2436       C  0.72305140  0.48510850  0.11492699     0.22700
C2437       C  0.73135594  0.49293866  0.10173758    -0.33600
C2438       C  0.74381327  0.50436044  0.10616379     0.16800
O2439       O  0.75887292  0.52006906  0.12373493    -0.25600
C2440       C  0.76212214  0.52419210  0.10801193     0.06600
C2441       C  0.75316329  0.51472557  0.09657827    -0.30500
O2442       O  0.71031734  0.47483368  0.11354767    -0.22300
C2443       C  0.70621458  0.47134532  0.12919279    -0.02300
C2444       C  0.71633727  0.47942937  0.14077104    -0.16700
H2445       H  0.74243347  0.50282796  0.14854794     0.21300
H2446       H  0.72796372  0.49067742  0.08890444     0.19600
H2447       H  0.75284747  0.51599354  0.08318602     0.19600
H2448       H  0.71536944  0.47926894  0.15418870     0.15500
C2449       C  0.62579906  0.41152175  0.23738622     0.30900
C2450       C  0.63335497  0.42537440  0.23003449    -0.35400
C2451       C  0.64096338  0.42260456  0.21460638     0.16900
C2452       C  0.64119581  0.40722436  0.20693102     0.22700
C2453       C  0.63391514  0.39324546  0.21447614    -0.33600
C2454       C  0.62623587  0.39603013  0.22993827     0.16800
O2455       O  0.61649267  0.41181252  0.25083858    -0.25600
C2456       C  0.61096993  0.39629342  0.25221455     0.06600
C2457       C  0.61673634  0.38582772  0.23963617    -0.30500
O2458       O  0.64738690  0.40789287  0.19174223    -0.22300
C2459       C  0.65123926  0.42388256  0.18972244    -0.02300
C2460       C  0.64759204  0.43358505  0.20359530    -0.16700
H2461       H  0.63258472  0.43764489  0.23555101     0.21300
H2462       H  0.63352018  0.38125779  0.20833780     0.19600
H2463       H  0.61345779  0.37297441  0.23733987     0.19600
H2464       H  0.64853886  0.44695533  0.20489773     0.15500
C2465       C  0.64832377  0.37478140  0.10528031     0.30900
C2466       C  0.64830562  0.35741965  0.10718372    -0.35400
C2467       C  0.63797810  0.34850171  0.09628352     0.16900
C2468       C  0.62848383  0.35610436  0.08413837     0.22700
C2469       C  0.62858269  0.37350230  0.08215351    -0.33600
C2470       C  0.63872836  0.38246394  0.09325983     0.16800
O2471       O  0.65586485  0.38551415  0.11515050    -0.25600
C2472       C  0.65101102  0.40031584  0.10950441     0.06600
C2473       C  0.64034741  0.39920380  0.09585717    -0.30500
O2474       O  0.61876054  0.34547518  0.07620207    -0.22300
C2475       C  0.62202852  0.33089406  0.08340312    -0.02300
C2476       C  0.63390927  0.33204546  0.09596363    -0.16700
H2477       H  0.65525761  0.35135512  0.11700307     0.21300
H2478       H  0.62070749  0.37966470  0.07311776     0.19600
H2479       H  0.63402840  0.40921088  0.08940370     0.19600
H2480       H  0.63822922  0.32234087  0.10424267     0.15500
C2481       C  0.51991956  0.32327418  0.08638122     0.30900
C2482       C  0.50263140  0.32162900  0.08827548    -0.35400
C2483       C  0.49517732  0.33201574  0.10021628     0.16900
C2484       C  0.50409341  0.34333360  0.10959799     0.22700
C2485       C  0.52126545  0.34538466  0.10729498    -0.33600
C2486       C  0.52872457  0.33491591  0.09546533     0.16800
O2487       O  0.52975668  0.31303262  0.07803105    -0.25600
C2488       C  0.54501753  0.31827196  0.08177177     0.06600
C2489       C  0.54509483  0.33194946  0.09239772    -0.30500
O2490       O  0.49523688  0.34974648  0.12186268    -0.22300
C2491       C  0.48041863  0.34256152  0.12023810    -0.02300
C2492       C  0.47960964  0.33158068  0.10686081    -0.16700
H2493       H  0.49570462  0.31202062  0.08186981     0.21300
H2494       H  0.52852899  0.35359811  0.11512251     0.19600
H2495       H  0.55571286  0.33778737  0.09829805     0.19600
H2496       H  0.46957702  0.32321240  0.10361485     0.15500
C2497       C  0.14188610  0.58334223  0.20586965     0.30900
C2498       C  0.13028794  0.59461221  0.21257071    -0.35400
C2499       C  0.12688971  0.59295045  0.22958408     0.16900
C2500       C  0.13452655  0.58111592  0.23943411     0.22700
C2501       C  0.14652537  0.57013914  0.23281769    -0.33600
C2502       C  0.14977107  0.57165913  0.21571105     0.16800
O2503       O  0.14476466  0.58100813  0.18989687    -0.25600
C2504       C  0.15468731  0.56770786  0.18939491     0.06600
C2505       C  0.15837725  0.56145054  0.20511934    -0.30500
O2506       O  0.12764879  0.58009447  0.25431884    -0.22300
C2507       C  0.11549181  0.59144789  0.25400812    -0.02300
C2508       C  0.11458498  0.59993230  0.23897931    -0.16700
H2509       H  0.12341363  0.60320350  0.20478766     0.21300
H2510       H  0.15196780  0.56026645  0.24019222     0.19600
H2511       H  0.16498778  0.55009035  0.20815883     0.19600
H2512       H  0.10519120  0.60877418  0.23500655     0.15500
C2513       C  0.98969933  0.61158545  0.22240332     0.30900
C2514       C  0.00009217  0.59853742  0.22777243    -0.35400
C2515       C  0.00957987  0.60155232  0.24215777     0.16900
C2516       C  0.00898175  0.61642713  0.25073727     0.22700
C2517       C  0.99825798  0.62940238  0.24556285    -0.33600
C2518       C  0.98869911  0.62636462  0.23112119     0.16800
O2519       O  0.98076676  0.61176810  0.20858260    -0.25600
C2520       C  0.97370829  0.62680182  0.20838317     0.06600
C2521       C  0.97811553  0.63641581  0.22219341    -0.30500
O2522       O  0.02007928  0.61702547  0.26297626    -0.22300
C2523       C  0.02776468  0.60225924  0.26229498    -0.02300
C2524       C  0.02160896  0.59213162  0.24963976    -0.16700
H2525       H  0.00117282  0.58702525  0.22084260     0.21300
H2526       H  0.99785195  0.64124918  0.25197955     0.19600
H2527       H  0.97465271  0.64917845  0.22484679     0.19600
H2528       H  0.02604603  0.57995668  0.24588010     0.15500
C2529       C  0.08873027  0.62317798  0.36017407     0.30900
C2530       C  0.08915900  0.62178335  0.37759256    -0.35400
C2531       C  0.09886891  0.63358544  0.38608169     0.16900
C2532       C  0.10743394  0.64602135  0.37799956     0.22700
C2533       C  0.10688616  0.64750237  0.36059927    -0.33600
C2534       C  0.09733206  0.63558810  0.35209609     0.16800
O2535       O  0.08148162  0.61273938  0.34973721    -0.25600
C2536       C  0.08551058  0.61849301  0.33475710     0.06600
C2537       C  0.09534574  0.63270726  0.33547358    -0.30500
O2538       O  0.11688926  0.65478707  0.38819096    -0.22300
C2539       C  0.11439350  0.64788624  0.40300714    -0.02300
C2540       C  0.10323365  0.63467922  0.40245783    -0.16700
H2541       H  0.08293476  0.61177121  0.38401885     0.21300
H2542       H  0.11400835  0.65684418  0.35409621     0.19600
H2543       H  0.10076864  0.63951979  0.32524861     0.19600
H2544       H  0.09972300  0.62642334  0.41245538     0.15500
C2545       C  0.13090994  0.88485704  0.72371952     0.30900
C2546       C  0.13224759  0.88385858  0.70637087    -0.35400
C2547       C  0.14409390  0.89427267  0.69902417     0.16900
C2548       C  0.15426111  0.90474936  0.70809348     0.22700
C2549       C  0.15324651  0.90539324  0.72554216    -0.33600
C2550       C  0.14111874  0.89521057  0.73289184     0.16800
O2551       O  0.11871526  0.87854568  0.73263638    -0.25600
C2552       C  0.12106669  0.88490692  0.74773599     0.06600
C2553       C  0.13495066  0.89520495  0.74868828    -0.30500
O2554       O  0.16269332  0.91510243  0.69852308    -0.22300
C2555       C  0.15777974  0.91121287  0.68316403    -0.02300
C2556       C  0.14633076  0.89827065  0.68277549    -0.16700
H2557       H  0.12365722  0.87655756  0.69899967     0.21300
H2558       H  0.16041260  0.91422493  0.73275216     0.19600
H2559       H  0.13880576  0.90296809  0.75900972     0.19600
H2560       H  0.13955574  0.89349578  0.67214484     0.15500
C2561       C  0.10951446  0.73466801  0.51216745     0.30900
C2562       C  0.10620973  0.71874910  0.50578233    -0.35400
C2563       C  0.11730753  0.71278224  0.49369238     0.16900
C2564       C  0.13072877  0.72185404  0.48811391     0.22700
C2565       C  0.13409608  0.73780735  0.49457748    -0.33600
C2566       C  0.12302542  0.74375251  0.50681451     0.16800
O2567       O  0.10105093  0.74229489  0.52400901    -0.25600
C2568       C  0.10923094  0.75646790  0.52643371     0.06600
C2569       C  0.12305540  0.75805880  0.51608880    -0.30500
O2570       O  0.13956588  0.71367607  0.47683605    -0.22300
C2571       C  0.13167312  0.69918462  0.47523548    -0.02300
C2572       C  0.11778990  0.69795607  0.48547642    -0.16700
H2573       H  0.09583468  0.71140985  0.51013377     0.21300
H2574       H  0.14472281  0.74496626  0.49053670     0.19600
H2575       H  0.13204809  0.76805137  0.51579325     0.19600
H2576       H  0.10935324  0.68756936  0.48676487     0.15500
C2577       C  0.15244417  0.87667436  0.59882096     0.30900
C2578       C  0.15434524  0.85931620  0.59828822    -0.35400
C2579       C  0.14266776  0.85060978  0.58867921     0.16900
C2580       C  0.13008273  0.85843252  0.57993451     0.22700
C2581       C  0.12827543  0.87586807  0.58031378    -0.33600
C2582       C  0.13983242  0.88458385  0.59018560     0.16800
O2583       O  0.16101786  0.88695524  0.60831953    -0.25600
C2584       C  0.15384671  0.90170284  0.60585034     0.06600
C2585       C  0.14058503  0.90100519  0.59464784    -0.30500
O2586       O  0.11972335  0.84772307  0.57296467    -0.22300
C2587       C  0.12573359  0.83288330  0.57739466    -0.02300
C2588       C  0.14002852  0.83394376  0.58710820    -0.16700
H2589       H  0.16377413  0.85296990  0.60554841     0.21300
H2590       H  0.11809083  0.88211074  0.57404357     0.19600
H2591       H  0.13219537  0.91094276  0.59104562     0.19600
H2592       H  0.14690613  0.82391697  0.59294003     0.15500
C2593       C  0.02343213  0.80595674  0.58843210     0.30900
C2594       C  0.00949580  0.80131720  0.59769709    -0.35400
C2595       C  0.99983150  0.81435213  0.60406039     0.16900
C2596       C  0.00341929  0.83092379  0.60141960     0.22700
C2597       C  0.01734352  0.83560046  0.59193701    -0.33600
C2598       C  0.02716277  0.82247566  0.58563526     0.16800
O2599       O  0.03507290  0.79574609  0.58300271    -0.25600
C2600       C  0.04645405  0.80573503  0.57649651     0.06600
C2601       C  0.04219115  0.82253657  0.57769140    -0.30500
O2602       O  0.99336263  0.84097303  0.60979964    -0.22300
C2603       C  0.98337424  0.83058210  0.61790048    -0.02300
C2604       C  0.98680907  0.81393623  0.61472036    -0.16700
H2605       H  0.00685889  0.78842975  0.60048356     0.21300
H2606       H  0.02072460  0.84850767  0.59026858     0.19600
H2607       H  0.04967795  0.83321258  0.57444417     0.19600
H2608       H  0.98104046  0.80308257  0.62014895     0.15500
C2609       C  0.61306922  0.22301823  0.98969392     0.30900
C2610       C  0.59934159  0.23101456  0.99719060    -0.35400
C2611       C  0.60305785  0.24222055  0.01015566     0.16900
C2612       C  0.61914486  0.24515605  0.01546666     0.22700
C2613       C  0.63280982  0.23728477  0.00791412    -0.33600
C2614       C  0.62912622  0.22626500  0.99488321     0.16800
O2615       O  0.61254795  0.21156306  0.97785152    -0.25600
C2616       C  0.62850649  0.20758037  0.97534509     0.06600
C2617       C  0.63933507  0.21638405  0.98558508    -0.30500
O2618       O  0.61980790  0.25541981  0.02827011    -0.22300
C2619       C  0.60396144  0.25933836  0.03115860    -0.02300
C2620       C  0.59294903  0.25153620  0.02023914    -0.16700
H2621       H  0.58666641  0.22848451  0.99337222     0.21300
H2622       H  0.64544201  0.23940510  0.01209740     0.19600
H2623       H  0.65273309  0.21516344  0.98651709     0.19600
H2624       H  0.57947734  0.25216641  0.02015604     0.15500
C2625       C  0.62646633  0.08041633  0.74061905     0.30900
C2626       C  0.63602500  0.08538889  0.72688616    -0.35400
C2627       C  0.64286026  0.07250495  0.71714556     0.16900
C2628       C  0.64046980  0.05588424  0.72069144     0.22700
C2629       C  0.63116829  0.05093039  0.73454299    -0.33600
C2630       C  0.62431563  0.06377327  0.74421040     0.16800
O2631       O  0.61758407  0.09024368  0.75044734    -0.25600
C2632       C  0.60970292  0.07969496  0.76042936     0.06600
C2633       C  0.61351751  0.06311184  0.75715977    -0.30500
O2634       O  0.64633566  0.04594435  0.70898064    -0.22300
C2635       C  0.65271909  0.05627425  0.69779641    -0.02300
C2636       C  0.65100659  0.07295927  0.70228075    -0.16700
H2637       H  0.63735252  0.09835058  0.72355600     0.21300
H2638       H  0.62871845  0.03795905  0.73711359     0.19600
H2639       H  0.60830679  0.05212420  0.76287795     0.19600
H2640       H  0.65407230  0.08382913  0.69500247     0.15500
C2641       C  0.59426549  0.14094081  0.85167063     0.30900
C2642       C  0.60668680  0.15132831  0.85826804    -0.35400
C2643       C  0.60718729  0.15269322  0.87567317     0.16900
C2644       C  0.59628625  0.14432850  0.88590545     0.22700
C2645       C  0.58360843  0.13428346  0.87929650    -0.33600
C2646       C  0.58304136  0.13299603  0.86188755     0.16800
O2647       O  0.59265463  0.13648236  0.83592654    -0.25600
C2648       C  0.58007273  0.12572479  0.83600816     0.06600
C2649       C  0.57352116  0.12320096  0.85181050    -0.30500
O2650       O  0.60007855  0.14598943  0.90180365    -0.22300
C2651       C  0.61345048  0.15572194  0.90176944    -0.02300
C2652       C  0.61835539  0.16038939  0.88587113    -0.16700
H2653       H  0.61580453  0.15730782  0.85042626     0.21300
H2654       H  0.57525197  0.12735164  0.88719531     0.19600
H2655       H  0.56400509  0.11445594  0.85548776     0.19600
H2656       H  0.62919987  0.16750215  0.88232716     0.15500
C2657       C  0.49885206  0.14931402  0.59854637     0.30900
C2658       C  0.50457206  0.16025228  0.58622253    -0.35400
C2659       C  0.52171860  0.15966133  0.58284116     0.16900
C2660       C  0.53242929  0.14890260  0.59094077     0.22700
C2661       C  0.52667927  0.13780903  0.60306555    -0.33600
C2662       C  0.50959832  0.13853534  0.60657083     0.16800
O2663       O  0.48382364  0.14933031  0.60514793    -0.25600
C2664       C  0.48494809  0.13843636  0.61754686     0.06600
C2665       C  0.50068396  0.13126548  0.61896639    -0.30500
O2666       O  0.54816558  0.15181559  0.58745524    -0.22300
C2667       C  0.54762524  0.16457266  0.57695592    -0.02300
C2668       C  0.53146909  0.16993032  0.57351822    -0.16700
H2669       H  0.49641981  0.16931644  0.58045647     0.21300
H2670       H  0.53511745  0.12993931  0.61004375     0.19600
H2671       H  0.50524320  0.12300118  0.62857387     0.00400
H2672       H  0.52759688  0.18071575  0.56644122     0.15500
C2673       C  0.50813463  0.10689486  0.74407369     0.30900
C2674       C  0.49465996  0.10162721  0.73412937    -0.35400
C2675       C  0.48859356  0.11319835  0.72243079     0.16900
C2676       C  0.49527195  0.12889284  0.72069481     0.22700
C2677       C  0.50879450  0.13409247  0.73050968    -0.33600
C2678       C  0.51487545  0.12253397  0.74213833     0.16800
O2679       O  0.51605029  0.09802326  0.75553027    -0.25600
C2680       C  0.52803778  0.10813578  0.76098589     0.06600
C2681       C  0.52788023  0.12351211  0.75302388    -0.30500
O2682       O  0.48790150  0.13762190  0.70885184    -0.22300
C2683       C  0.47633436  0.12741054  0.70281442    -0.02300
C2684       C  0.47623726  0.11199972  0.71075401    -0.16700
H2685       H  0.48939432  0.08931459  0.73529955     0.21300
H2686       H  0.51431386  0.14626159  0.72905884     0.19600
H2687       H  0.53636882  0.13380278  0.75476929     0.19600
H2688       H  0.46840786  0.10138199  0.70809536     0.15500
C2689       C  0.22337526  0.98737576  0.60853588     0.30900
C2690       C  0.22915079  0.99774705  0.59574374    -0.35400
C2691       C  0.24307780  0.00762115  0.59951569     0.16900
C2692       C  0.25075696  0.00745453  0.61487817     0.22700
C2693       C  0.24512260  0.99688215  0.62761728    -0.33600
C2694       C  0.23124576  0.98689025  0.62379721     0.16800
O2695       O  0.20996825  0.97788327  0.60799018    -0.25600
C2696       C  0.20927457  0.97102453  0.62304575     0.06600
C2697       C  0.22226322  0.97613076  0.63338097    -0.30500
O2698       O  0.26286405  0.01855540  0.61601593    -0.22300
C2699       C  0.26307481  0.02578986  0.60110008    -0.02300
C2700       C  0.25106147  0.01940849  0.59034430    -0.16700
H2701       H  0.22294674  0.99839537  0.58380418     0.21300
H2702       H  0.25088158  0.99676670  0.63979342     0.19600
H2703       H  0.22432063  0.97297859  0.64629987     0.19600
H2704       H  0.24813130  0.02343218  0.57783976     0.15500
C2705       C  0.38677988  0.09378124  0.63856003     0.30900
C2706       C  0.37934518  0.08142598  0.62865921    -0.35400
C2707       C  0.36191277  0.08217390  0.62725171     0.16900
C2708       C  0.35243568  0.09423954  0.63506046     0.22700
C2709       C  0.35982236  0.10631164  0.64531432    -0.33600
C2710       C  0.37723649  0.10554152  0.64674550     0.16800
O2711       O  0.40292513  0.09656375  0.64010355    -0.25600
C2712       C  0.40371240  0.11012031  0.64962796     0.06600
C2713       C  0.38811745  0.11614098  0.65425039    -0.30500
O2714       O  0.33658768  0.09365659  0.63068926    -0.22300
C2715       C  0.33585751  0.08097801  0.62002629    -0.02300
C2716       C  0.35121995  0.07328763  0.61751168    -0.16700
H2717       H  0.38669115  0.07237729  0.62186742     0.21300
H2718       H  0.35258079  0.11609877  0.65113175     0.19600
H2719       H  0.38523372  0.12740619  0.66109055     0.19600
H2720       H  0.35422587  0.06327835  0.60898563     0.15500
C2721       C  0.71095388  0.33611857  0.41207650     0.30900
C2722       C  0.72833394  0.33804577  0.41338586    -0.35400
C2723       C  0.73563388  0.34943834  0.40233035     0.16900
C2724       C  0.72645445  0.35824302  0.39075537     0.22700
C2725       C  0.70921404  0.35606531  0.38922180    -0.33600
C2726       C  0.70194421  0.34479401  0.40028211     0.16800
O2727       O  0.70125311  0.32779546  0.42241680    -0.25600
C2728       C  0.68587727  0.33118474  0.41707231     0.06600
C2729       C  0.68563282  0.34159361  0.40328319    -0.30500
O2730       O  0.73528925  0.36969609  0.38311363    -0.22300
C2731       C  0.75041354  0.36820466  0.38971955    -0.02300
C2732       C  0.75141262  0.35570860  0.40168111    -0.16700
H2733       H  0.73550134  0.33186802  0.42297931     0.21300
H2734       H  0.70182260  0.36341573  0.38067705     0.19600
H2735       H  0.67491232  0.34706220  0.39716685     0.19600
H2736       H  0.76182765  0.35270513  0.40971629     0.15500
C2737       C  0.80422924  0.39004079  0.45953346     0.30900
C2738       C  0.79934553  0.38139453  0.47381603    -0.35400
C2739       C  0.81214264  0.37346486  0.48268478     0.16900
C2740       C  0.82866795  0.37415563  0.47800966     0.22700
C2741       C  0.83356696  0.38291991  0.46378202    -0.33600
C2742       C  0.82074066  0.39074201  0.45481178     0.16800
O2743       O  0.79413231  0.39664312  0.44839123    -0.25600
C2744       C  0.80429043  0.40171257  0.43640607     0.06600
C2745       C  0.82099787  0.39847610  0.43978141    -0.30500
O2746       O  0.83842366  0.36506494  0.48765271    -0.22300
C2747       C  0.82795296  0.35840073  0.49853357    -0.02300
C2748       C  0.81146887  0.36318329  0.49603976    -0.16700
H2749       H  0.78639416  0.38026505  0.47732184     0.21300
H2750       H  0.84637108  0.38304669  0.45961454     0.19600
H2751       H  0.83159418  0.40019684  0.43167402     0.19600
H2752       H  0.80054128  0.35929783  0.50284647     0.15500
C2753       C  0.84964806  0.39027851  0.34257871     0.30900
C2754       C  0.85811241  0.37966832  0.33149168    -0.35400
C2755       C  0.87560407  0.37976740  0.33251814     0.16900
C2756       C  0.88419168  0.38959417  0.34370586     0.22700
C2757       C  0.87575354  0.40052655  0.35444831    -0.33600
C2758       C  0.85829218  0.40045027  0.35340315     0.16800
O2759       O  0.83336500  0.39084090  0.34506650    -0.25600
C2760       C  0.83156923  0.40168375  0.35750717     0.06600
C2761       C  0.84665972  0.40813723  0.36306469    -0.30500
O2762       O  0.90033148  0.38630085  0.34393690    -0.22300
C2763       C  0.90217498  0.37433702  0.33260634    -0.02300
C2764       C  0.88722108  0.36988615  0.32500132    -0.16700
H2765       H  0.85151788  0.37129431  0.32325530     0.21300
H2766       H  0.88230493  0.40793775  0.36359226     0.19600
H2767       H  0.84881103  0.41637652  0.37351390     0.19600
H2768       H  0.88507018  0.35994526  0.31615214     0.15500
C2769       C  0.91103911  0.27430018  0.34014857     0.30900
C2770       C  0.91177472  0.25681604  0.34064201    -0.35400
C2771       C  0.90220606  0.24912443  0.35305303     0.16900
C2772       C  0.89237017  0.25802734  0.36401391     0.22700
C2773       C  0.89128755  0.27540834  0.36323212    -0.33600
C2774       C  0.90105363  0.28307875  0.35107124     0.16800
O2775       O  0.92083419  0.28413904  0.33137666    -0.25600
C2776       C  0.91705677  0.29935523  0.33683954     0.06600
C2777       C  0.90474315  0.29940678  0.34896646    -0.30500
O2778       O  0.88628869  0.24870263  0.37599193    -0.22300
C2779       C  0.89222551  0.23358213  0.37271764    -0.02300
C2780       C  0.90211777  0.23305164  0.35851022    -0.16700
H2781       H  0.92016158  0.24979960  0.33275227     0.21300
H2782       H  0.88431279  0.28253710  0.37230547     0.19600
H2783       H  0.90019354  0.30986700  0.35617882     0.19600
H2784       H  0.90934036  0.22267657  0.35377461     0.15500
C2785       C  0.17747566  0.38760663  0.96194226     0.30900
C2786       C  0.18185458  0.37917260  0.97658184    -0.35400
C2787       C  0.16879968  0.37133164  0.98505429     0.16900
C2788       C  0.15247176  0.37182694  0.97965641     0.22700
C2789       C  0.14805729  0.38043720  0.96507576    -0.33600
C2790       C  0.16115377  0.38824088  0.95653452     0.16800
O2791       O  0.18793191  0.39434006  0.95125943    -0.25600
C2792       C  0.17820005  0.39954585  0.93888243     0.06600
C2793       C  0.16140677  0.39614919  0.94154105    -0.30500
O2794       O  0.14246243  0.36278703  0.98905856    -0.22300
C2795       C  0.15258246  0.35637204  0.00055587    -0.02300
C2796       C  0.16906542  0.36131924  0.99865907    -0.16700
H2797       H  0.19465668  0.37820548  0.98071403     0.21300
H2798       H  0.13541438  0.38053892  0.96039134     0.19600
H2799       H  0.15108505  0.39805719  0.93306768     0.19600
H2800       H  0.17978269  0.35766501  0.00600161     0.15500
C2801       C  0.19837957  0.34363838  0.08515240     0.30900
C2802       C  0.20412089  0.35613790  0.09587986    -0.35400
C2803       C  0.22139559  0.35835968  0.09649254     0.16900
C2804       C  0.23236951  0.34890420  0.08721038     0.22700
C2805       C  0.22662380  0.33603915  0.07676277    -0.33600
C2806       C  0.20924844  0.33384750  0.07608828     0.16800
O2807       O  0.18270373  0.34107935  0.08112081    -0.25600
C2808       C  0.18336905  0.32937243  0.06942396     0.06600
C2809       C  0.19957561  0.32423755  0.06585022    -0.30500
O2810       O  0.24774306  0.35472172  0.08792736    -0.22300
C2811       C  0.24654929  0.36797903  0.09787273    -0.02300
C2812       C  0.23047523  0.37069554  0.10368207    -0.16700
H2813       H  0.19562972  0.36430624  0.10245560     0.21300
H2814       H  0.23500956  0.32898250  0.06890464     0.19600
H2815       H  0.20366480  0.31578915  0.05616771     0.19600
H2816       H  0.22587504  0.38115493  0.11086152     0.15500
C2817       C  0.99044379  0.37350955  0.26883622     0.30900
C2818       C  0.99946606  0.38670819  0.26175675    -0.35400
C2819       C  0.00973446  0.38259178  0.24816859     0.16900
C2820       C  0.01100942  0.36659592  0.24199955     0.22700
C2821       C  0.00185944  0.35347931  0.24894876    -0.33600
C2822       C  0.99161672  0.35757801  0.26249687     0.16800
O2823       O  0.98085228  0.37429968  0.28217423    -0.25600
C2824       C  0.97574042  0.35867822  0.28434424     0.06600
C2825       C  0.98201021  0.34777001  0.27241146    -0.30500
O2826       O  0.02206463  0.36527534  0.22992372    -0.22300
C2827       C  0.02794808  0.38063781  0.22818119    -0.02300
C2828       C  0.02068695  0.39196491  0.23919873    -0.16700
H2829       H  0.99887074  0.39920485  0.26677035     0.21300
H2830       H  0.00300005  0.34084914  0.24438944     0.19600
H2831       H  0.98024497  0.33445103  0.27155157     0.19600
H2832       H  0.02358604  0.40501069  0.24083611     0.15500
C2833       C  0.08386120  0.35824656  0.12647890     0.30900
C2834       C  0.08283524  0.35924153  0.10899646    -0.35400
C2835       C  0.09334463  0.34840489  0.09999861     0.16900
C2836       C  0.10400198  0.33733953  0.10773533     0.22700
C2837       C  0.10511363  0.33645537  0.12512476    -0.33600
C2838       C  0.09471173  0.34727710  0.13407093     0.16800
O2839       O  0.07572230  0.36758766  0.13737326    -0.25600
C2840       C  0.08147626  0.36249588  0.15210163     0.06600
C2841       C  0.09334906  0.34992529  0.15075254    -0.30500
O2842       O  0.11309899  0.32873657  0.09710588    -0.22300
C2843       C  0.10835777  0.33431102  0.08225899    -0.02300
C2844       C  0.09609065  0.34662855  0.08326479    -0.16700
H2845       H  0.07466674  0.36804260  0.10285924     0.21300
H2846       H  0.11373905  0.32809900  0.13126241     0.19600
H2847       H  0.10035882  0.34399263  0.16061857     0.19600
H2848       H  0.09044178  0.35358708  0.07320930     0.15500
C2849       C  0.08691625  0.46473441  0.17595611     0.30900
C2850       C  0.09305863  0.48047622  0.18031888    -0.35400
C2851       C  0.10158717  0.48904853  0.16779369     0.16900
C2852       C  0.10387194  0.48264474  0.15200664     0.22700
C2853       C  0.09732248  0.46709731  0.14751004    -0.33600
C2854       C  0.08886521  0.45847870  0.16006558     0.16800
O2855       O  0.08061444  0.45370363  0.18629554    -0.25600
C2856       C  0.07834802  0.44026074  0.17687751     0.06600
C2857       C  0.08313046  0.44256698  0.16042256    -0.30500
O2858       O  0.11397524  0.49181856  0.14292389    -0.22300
C2859       C  0.11812615  0.50429378  0.15300723    -0.02300
C2860       C  0.11065958  0.50328622  0.16856947    -0.16700
H2861       H  0.09218270  0.48524307  0.19288296     0.21300
H2862       H  0.09956339  0.46164768  0.13539965     0.19600
H2863       H  0.08368595  0.43339049  0.15055813     0.19600
H2864       H  0.11263083  0.51122818  0.17928237     0.15500
C2865       C  0.58588395  0.45661766  0.32186333     0.30900
C2866       C  0.58664549  0.47406440  0.32082143    -0.35400
C2867       C  0.59853689  0.48185985  0.33104993     0.16900
C2868       C  0.60887121  0.47310337  0.34166113     0.22700
C2869       C  0.60792420  0.45574310  0.34289856    -0.33600
C2870       C  0.59617020  0.44797436  0.33260540     0.16800
O2871       O  0.57706273  0.44662247  0.31217287    -0.25600
C2872       C  0.58179094  0.43142499  0.31685513     0.06600
C2873       C  0.59358339  0.43156861  0.32954429    -0.30500
O2874       O  0.62035950  0.48255950  0.34858944    -0.22300
C2875       C  0.61737967  0.49761183  0.34239518    -0.02300
C2876       C  0.60386199  0.49795363  0.33151066    -0.16700
H2877       H  0.57917223  0.48098214  0.31199356     0.21300
H2878       H  0.61642854  0.44869350  0.35063422     0.19600
H2879       H  0.60012218  0.42108461  0.33495418     0.19600
H2880       H  0.59950173  0.50825004  0.32400049     0.15500
C2881       C  0.74130384  0.46943276  0.36104860     0.30900
C2882       C  0.73275415  0.47753816  0.34810748    -0.35400
C2883       C  0.72106016  0.48966775  0.35292088     0.16900
C2884       C  0.71790874  0.49350097  0.36935434     0.22700
C2885       C  0.72654743  0.48546818  0.38230598    -0.33600
C2886       C  0.73832240  0.47339967  0.37748435     0.16800
O2887       O  0.75218371  0.45717756  0.35936526    -0.25600
C2888       C  0.75638139  0.45330608  0.37491495     0.06600
C2889       C  0.74815714  0.46301931  0.38672056    -0.30500
O2890       O  0.70578162  0.50454524  0.37104289    -0.22300
C2891       C  0.70116350  0.50793918  0.35548380    -0.02300
C2892       C  0.71028829  0.49906302  0.34369261    -0.16700
H2893       H  0.73482127  0.47435361  0.33519297     0.21300
H2894       H  0.72400989  0.48818456  0.39524241     0.19600
H2895       H  0.74884046  0.46210754  0.40013085     0.19600
H2896       H  0.70870485  0.49900115  0.33032405     0.15500
C2897       C  0.59979085  0.76233883  0.36176653     0.30900
C2898       C  0.59945563  0.77977361  0.36092354    -0.35400
C2899       C  0.59023143  0.78668544  0.34778792     0.16900
C2900       C  0.58207011  0.77715310  0.33603867     0.22700
C2901       C  0.58285808  0.75966355  0.33658567    -0.33600
C2902       C  0.59187046  0.75272033  0.34992261     0.16800
O2903       O  0.60528615  0.75349115  0.37446912    -0.25600
C2904       C  0.60093661  0.73795180  0.37075491     0.06600
C2905       C  0.59269336  0.73670669  0.35553507    -0.30500
O2906       O  0.57216284  0.78616346  0.32638048    -0.22300
C2907       C  0.57401245  0.80164183  0.33206417    -0.02300
C2908       C  0.58523772  0.80266795  0.34524309    -0.16700
H2909       H  0.60486315  0.78742475  0.37061041     0.21300
H2910       H  0.57583721  0.75201346  0.32800383     0.19600
H2911       H  0.58673934  0.72586256  0.35021258     0.19600
H2912       H  0.58812452  0.81343536  0.35282579     0.15500
C2913       C  0.62535388  0.62647447  0.39764474     0.30900
C2914       C  0.62241146  0.60923936  0.39805182    -0.35400
C2915       C  0.63347656  0.59923157  0.38887965     0.16900
C2916       C  0.64664393  0.60572920  0.38004888     0.22700
C2917       C  0.64962431  0.62295832  0.37969469    -0.33600
C2918       C  0.63845218  0.63298434  0.38872266     0.16800
O2919       O  0.61592944  0.63814542  0.40444015    -0.25600
C2920       C  0.62301109  0.65235523  0.39978089     0.06600
C2921       C  0.63709806  0.64990003  0.38998743    -0.30500
O2922       O  0.65476308  0.59425424  0.37148210    -0.22300
C2923       C  0.64670062  0.58019919  0.37481729    -0.02300
C2924       C  0.63334560  0.58254410  0.38560223    -0.16700
H2925       H  0.61188424  0.60404955  0.40459276     0.21300
H2926       H  0.65960420  0.62822224  0.37240358     0.19600
H2927       H  0.64483622  0.65921274  0.38417694     0.19600
H2928       H  0.62436644  0.57344066  0.38972783     0.15500
C2929       C  0.23854080  0.84702568  0.89897505     0.30900
C2930       C  0.23262003  0.83523562  0.91042104    -0.35400
C2931       C  0.21548994  0.83173230  0.90964418     0.16900
C2932       C  0.20500056  0.83925833  0.89828207     0.22700
C2933       C  0.21095664  0.85077291  0.88667208    -0.33600
C2934       C  0.22799959  0.85436447  0.88754045     0.16800
O2935       O  0.25353208  0.85374372  0.89892540    -0.25600
C2936       C  0.25256351  0.86550732  0.88730896     0.06600
C2937       C  0.23699791  0.86635279  0.87973315    -0.30500
O2938       O  0.18922279  0.83576631  0.90092881    -0.22300
C2939       C  0.18948938  0.82577307  0.91408646    -0.02300
C2940       C  0.20552419  0.82271365  0.92001775    -0.16700
H2941       H  0.24059613  0.82994532  0.91990960     0.21300
H2942       H  0.20267652  0.85725386  0.87823322     0.19600
H2943       H  0.23256370  0.87540483  0.87079950     0.19600
H2944       H  0.20915295  0.81600399  0.93110745     0.15500
C2945       C  0.31927262  0.87862004  0.98572378     0.30900
C2946       C  0.30629128  0.88725388  0.97776467    -0.35400
C2947       C  0.30968463  0.89313547  0.96173120     0.16900
C2948       C  0.32488821  0.89081884  0.95407126     0.22700
C2949       C  0.33804421  0.88252394  0.96221770    -0.33600
C2950       C  0.33459083  0.87648855  0.97823907     0.16800
O2951       O  0.31806091  0.87043157  0.99984577    -0.25600
C2952       C  0.33281286  0.86301177  0.00159607     0.06600
C2953       C  0.34368055  0.86641863  0.98856749    -0.30500
O2954       O  0.32462250  0.89540902  0.93830882    -0.22300
C2955       C  0.30907128  0.90076522  0.93586068    -0.02300
C2956       C  0.29927751  0.89977871  0.95006318    -0.16700
H2957       H  0.29405982  0.88839935  0.98328344     0.21300
H2958       H  0.34978859  0.88005124  0.95609882     0.19600
H2959       H  0.35598771  0.86129939  0.98645702     0.19600
H2960       H  0.28606188  0.90222821  0.95121120     0.15500
C2961       C  0.38586367  0.88424466  0.84025277     0.30900
C2962       C  0.37800551  0.89497081  0.85164013    -0.35400
C2963       C  0.36050525  0.89511819  0.85129047     0.16900
C2964       C  0.35132424  0.88525218  0.84062321     0.22700
C2965       C  0.35918793  0.87483388  0.82896483    -0.33600
C2966       C  0.37668410  0.87482294  0.82918934     0.16800
O2967       O  0.40197829  0.88086492  0.83955750    -0.25600
C2968       C  0.40315004  0.86932134  0.82769883     0.06600
C2969       C  0.38782009  0.86520703  0.82073088    -0.30500
O2970       O  0.33514481  0.88613352  0.84356194    -0.22300
C2971       C  0.33393228  0.89693425  0.85609389    -0.02300
C2972       C  0.34930623  0.90299373  0.86131844    -0.16700
H2973       H  0.38501634  0.90216965  0.86061273     0.21300
H2974       H  0.35216715  0.86678546  0.82075731     0.19600
H2975       H  0.38515226  0.85557739  0.81168309     0.19600
H2976       H  0.35189830  0.91120965  0.87168510     0.15500
C2977       C  0.40897217  0.76995544  0.83892954     0.30900
C2978       C  0.40933069  0.75256534  0.84085808    -0.35400
C2979       C  0.39988186  0.74614988  0.85406719     0.16900
C2980       C  0.39064626  0.75615126  0.86459424     0.22700
C2981       C  0.39000379  0.77344669  0.86246110    -0.33600
C2982       C  0.39951471  0.77983978  0.84936931     0.16800
O2983       O  0.41852437  0.77879139  0.82889575    -0.25600
C2984       C  0.41507792  0.79450334  0.83300577     0.06600
C2985       C  0.40325654  0.79583944  0.84556432    -0.30500
O2986       O  0.38439347  0.74787192  0.87725593    -0.22300
C2987       C  0.38954533  0.73230486  0.87479132    -0.02300
C2988       C  0.39914895  0.73047040  0.86049535    -0.16700
H2989       H  0.41721307  0.74469568  0.83325524     0.21300
H2990       H  0.38338407  0.78146398  0.87105103     0.19600
H2991       H  0.39907269  0.80698674  0.85191909     0.19600
H2992       H  0.40570997  0.71947632  0.85622194     0.15500
C2993       C  0.66106538  0.89577037  0.45594727     0.30900
C2994       C  0.64738450  0.88813396  0.46372604    -0.35400
C2995       C  0.65097744  0.87893141  0.47816749     0.16900
C2996       C  0.66693493  0.87740046  0.48441672     0.22700
C2997       C  0.68049363  0.88523406  0.47683910    -0.33600
C2998       C  0.67691420  0.89442101  0.46249990     0.16800
O2999       O  0.66098255  0.90318068  0.44129767    -0.25600
C3000       C  0.67696302  0.90668092  0.43854010     0.06600
C3001       C  0.68738050  0.90168446  0.45142672    -0.30500
O3002       O  0.66777140  0.86739265  0.49731537    -0.22300
C3003       C  0.65214481  0.86248900  0.49958160    -0.02300
C3004       C  0.64107467  0.86928703  0.48805181    -0.16700
H3005       H  0.63497306  0.88870580  0.45848530     0.21300
H3006       H  0.69308428  0.88369091  0.48142332     0.19600
H3007       H  0.70085682  0.90188620  0.45180953     0.19600
H3008       H  0.62785468  0.86700558  0.48680224     0.15500
C3009       C  0.63195781  0.75998304  0.49474210     0.30900
C3010       C  0.63806059  0.74824264  0.48324291    -0.35400
C3011       C  0.62601445  0.73939128  0.47411931     0.16900
C3012       C  0.60911815  0.74176099  0.47629702     0.22700
C3013       C  0.60302732  0.75338585  0.48788010    -0.33600
C3014       C  0.61505486  0.76239865  0.49680762     0.16800
O3015       O  0.64094229  0.77059067  0.50357618    -0.25600
C3016       C  0.62962005  0.77998134  0.51130464     0.06600
C3017       C  0.61333474  0.77542287  0.50755204    -0.30500
O3018       O  0.60009464  0.73315991  0.46555431    -0.22300
C3019       C  0.61133325  0.72516776  0.45631775    -0.02300
C3020       C  0.62766187  0.72853728  0.46113715    -0.16700
H3021       H  0.65126209  0.74664342  0.48103819     0.21300
H3022       H  0.58983408  0.75578303  0.48928805     0.19600
H3023       H  0.60190003  0.78133244  0.51160505     0.19600
H3024       H  0.63907471  0.72432852  0.45531602     0.15500
C3025       C  0.70280996  0.84995280  0.58161660     0.30900
C3026       C  0.70852195  0.86252916  0.59224493    -0.35400
C3027       C  0.72567886  0.86545556  0.59210164     0.16900
C3028       C  0.73661224  0.85655726  0.58225068     0.22700
C3029       C  0.73090959  0.84368035  0.57176962    -0.33600
C3030       C  0.71360871  0.84080540  0.57182846     0.16800
O3031       O  0.68707722  0.84674280  0.57841019    -0.25600
C3032       C  0.68760406  0.83530233  0.56646485     0.06600
C3033       C  0.70381359  0.83095602  0.56192121    -0.30500
O3034       O  0.75186763  0.86270806  0.58280232    -0.22300
C3035       C  0.75059215  0.87563178  0.59318447    -0.02300
C3036       C  0.73460085  0.87784482  0.59936704    -0.16700
H3037       H  0.70003191  0.87017703  0.59941021     0.21300
H3038       H  0.73921891  0.83703784  0.56348805     0.19600
H3039       H  0.70773617  0.82284862  0.55188749     0.19600
H3040       H  0.72997039  0.88786756  0.60712246     0.15500
C3041       C  0.50929205  0.87722365  0.74062172     0.30900
C3042       C  0.49746908  0.88218951  0.75256349    -0.35400
C3043       C  0.48930063  0.86933055  0.76110784     0.16900
C3044       C  0.49233962  0.85269850  0.75798836     0.22700
C3045       C  0.50420503  0.84773654  0.74609672    -0.33600
C3046       C  0.51253419  0.86059296  0.73771185     0.16800
O3047       O  0.51899484  0.88713904  0.73180432    -0.25600
C3048       C  0.52867943  0.87671811  0.72319442     0.06600
C3049       C  0.52520150  0.86006352  0.72642660    -0.30500
O3050       O  0.48369472  0.84277829  0.76783190    -0.22300
C3051       C  0.47508260  0.85319722  0.77749725    -0.02300
C3052       C  0.47812580  0.86985617  0.77386645    -0.16700
H3053       H  0.49511813  0.89517277  0.75531973     0.21300
H3054       H  0.50706337  0.83475829  0.74384502     0.19600
H3055       H  0.53145868  0.84915508  0.72153066     0.19600
H3056       H  0.47313714  0.88076668  0.78004342     0.15500
C3057       C  0.58341542  0.85711462  0.62500148     0.30900
C3058       C  0.58256509  0.85823022  0.60754843    -0.35400
C3059       C  0.59301294  0.84737479  0.59856705     0.16900
C3060       C  0.60334165  0.83596964  0.60624929     0.22700
C3061       C  0.60410442  0.83477745  0.62368771    -0.33600
C3062       C  0.59392059  0.84586371  0.63266763     0.16800
O3063       O  0.57586914  0.86706444  0.63574880    -0.25600
C3064       C  0.58167298  0.86224533  0.65052477     0.06600
C3065       C  0.59297037  0.84908198  0.64935074    -0.30500
O3066       O  0.61308719  0.82805461  0.59560680    -0.22300
C3067       C  0.60910547  0.83451634  0.58087752    -0.02300
C3068       C  0.59660805  0.84656614  0.58195638    -0.16700
H3069       H  0.57490537  0.86748312  0.60142389     0.21300
H3070       H  0.61267426  0.82636961  0.62982879     0.19600
H3071       H  0.60001099  0.84326119  0.65925953     0.19600
H3072       H  0.59165856  0.85430664  0.57210713     0.15500
C3073       C  0.59506369  0.95529341  0.65265536     0.30900
C3074       C  0.60775606  0.96145504  0.64247464    -0.35400
C3075       C  0.61078878  0.97856764  0.64356277     0.16900
C3076       C  0.60175979  0.98906799  0.65376627     0.22700
C3077       C  0.58866349  0.98294921  0.66364846    -0.33600
C3078       C  0.58579349  0.96568023  0.66276741     0.16800
O3079       O  0.59211670  0.93943982  0.65541840    -0.25600
C3080       C  0.58072020  0.93947459  0.66738884     0.06600
C3081       C  0.57613156  0.95548838  0.67237275    -0.30500
O3082       O  0.60827551  0.00415783  0.65453595    -0.22300
C3083       C  0.62163530  0.00322509  0.64473022    -0.02300
C3084       C  0.62368938  0.98763083  0.63749705    -0.16700
H3085       H  0.61559836  0.95325305  0.63518251     0.21300
H3086       H  0.58203495  0.99086427  0.67231925     0.19600
H3087       H  0.56813155  0.95902749  0.68261274     0.19600
H3088       H  0.63399670  0.98322280  0.63000608     0.15500
C3089       C  0.11107093  0.98684945  0.81238325     0.30900
C3090       C  0.10396178  0.97877780  0.79858580    -0.35400
C3091       C  0.09648435  0.96334089  0.80168989     0.16900
C3092       C  0.09591328  0.95637183  0.81734179     0.22700
C3093       C  0.10262311  0.96467748  0.83123595    -0.33600
C3094       C  0.11022204  0.98008254  0.82811208     0.16800
O3095       O  0.12050809  0.00023461  0.81188073    -0.25600
C3096       C  0.12570546  0.00221337  0.82749563     0.06600
C3097       C  0.11954280  0.99013931  0.83820937    -0.30500
O3098       O  0.09018155  0.94098426  0.81708134    -0.22300
C3099       C  0.08694772  0.93807298  0.80107627    -0.02300
C3100       C  0.09051974  0.95160726  0.79094607    -0.16700
H3101       H  0.10510137  0.98370081  0.78613364     0.21300
H3102       H  0.10280898  0.95905442  0.84344163     0.19600
H3103       H  0.12255608  0.98830116  0.85119889     0.19600
H3104       H  0.09003272  0.95222641  0.77751107     0.15500
C3105       C  0.22918290  0.99209505  0.85172390     0.30900
C3106       C  0.24125124  0.98074871  0.84588731    -0.35400
C3107       C  0.24883800  0.97052081  0.85793028     0.16900
C3108       C  0.24500227  0.97152965  0.87462042     0.22700
C3109       C  0.23305432  0.98296893  0.88047302    -0.33600
C3110       C  0.22532043  0.99303878  0.86841162     0.16800
O3111       O  0.21958392  0.00185089  0.84249827    -0.25600
C3112       C  0.20938414  0.00912083  0.85341384     0.06600
C3113       C  0.21246244  0.00412915  0.86971953    -0.30500
O3114       O  0.25290515  0.96017358  0.88357904    -0.22300
C3115       C  0.26192068  0.95170206  0.87249759    -0.02300
C3116       C  0.25986732  0.95761625  0.85633876    -0.16700
H3117       H  0.24406966  0.97953238  0.83278859     0.21300
H3118       H  0.22957551  0.98354719  0.89345376     0.19600
H3119       H  0.20566808  0.00757636  0.88082553     0.19600
H3120       H  0.26528238  0.95274271  0.84500570     0.15500
C3121       C  0.05428286  0.26606139  0.84413313     0.30900
C3122       C  0.04956053  0.25334791  0.85506463    -0.35400
C3123       C  0.06255002  0.24381779  0.86191283     0.16900
C3124       C  0.07911010  0.24638900  0.85817680     0.22700
C3125       C  0.08382056  0.25893000  0.84695388    -0.33600
C3126       C  0.07080313  0.26860188  0.84018815     0.16800
O3127       O  0.04436395  0.27770231  0.83801595    -0.25600
C3128       C  0.05459262  0.28783666  0.82990712     0.06600
C3129       C  0.07117992  0.28268387  0.83071468    -0.30500
O3130       O  0.08922220  0.23670024  0.86695816    -0.22300
C3131       C  0.07893492  0.22787603  0.87645349    -0.02300
C3132       C  0.06223925  0.23178082  0.87375099    -0.16700
H3133       H  0.03671050  0.25156329  0.85865680     0.21300
H3134       H  0.09676165  0.26148176  0.84428249     0.19600
H3135       H  0.08206170  0.28917661  0.82623582     0.19600
H3136       H  0.05143496  0.22678678  0.88000049     0.15500
C3137       C  0.12636117  0.25295028  0.99877601     0.30900
C3138       C  0.13244568  0.24073307  0.98774639    -0.35400
C3139       C  0.12045214  0.23199945  0.97842306     0.16900
C3140       C  0.10357337  0.23484172  0.98004609     0.22700
C3141       C  0.09747192  0.24693503  0.99121968    -0.33600
C3142       C  0.10948942  0.25588879  0.00032253     0.16800
O3143       O  0.13543796  0.26363869  0.00743565    -0.25600
C3144       C  0.12427295  0.27367094  0.01459201     0.06600
C3145       C  0.10791840  0.26936240  0.01064210    -0.30500
O3146       O  0.09466024  0.22617072  0.96921281    -0.22300
C3147       C  0.10596702  0.21771196  0.96042720    -0.02300
C3148       C  0.12221760  0.22084079  0.96567694    -0.16700
H3149       H  0.14565751  0.23874213  0.98595895     0.21300
H3150       H  0.08431119  0.24973056  0.99215882     0.19600
H3151       H  0.09657192  0.27577430  0.01415540     0.19600
H3152       H  0.13369395  0.21618629  0.96033772     0.15500
C3153       C  0.13998979  0.13136171  0.89023415     0.30900
C3154       C  0.15203214  0.12456332  0.87945336    -0.35400
C3155       C  0.15246582  0.10708918  0.87823435     0.16900
C3156       C  0.14165714  0.09699951  0.88687514     0.22700
C3157       C  0.12986307  0.10377221  0.89789633    -0.33600
C3158       C  0.12955187  0.12121204  0.89924618     0.16800
O3159       O  0.13654927  0.14735894  0.89234351    -0.25600
C3160       C  0.12391375  0.14746393  0.90307428     0.06600
C3161       C  0.11911489  0.13153094  0.90782636    -0.30500
O3162       O  0.14310146  0.08114863  0.88265419    -0.22300
C3163       C  0.15517819  0.08098837  0.87132711    -0.02300
C3164       C  0.16155699  0.09677823  0.86818492    -0.16700
H3165       H  0.16010929  0.13236415  0.87209402     0.21300
H3166       H  0.12113190  0.09601139  0.90451684     0.19600
H3167       H  0.10880047  0.12805185  0.91571773     0.19600
H3168       H  0.17073436  0.10026633  0.85900406     0.15500
C3169       C  0.03249020  0.14555653  0.89214341     0.30900
C3170       C  0.02645242  0.13435328  0.88016225    -0.35400
C3171       C  0.00929905  0.13512478  0.87688650     0.16900
C3172       C  0.99877364  0.14610583  0.88493958     0.22700
C3173       C  0.00475515  0.15701622  0.89725689    -0.33600
C3174       C  0.02194268  0.15630225  0.90048352     0.16800
O3175       O  0.04830720  0.14858911  0.89527857    -0.25600
C3176       C  0.04794495  0.16129624  0.90592010     0.06600
C3177       C  0.03186403  0.16652719  0.90976321    -0.30500
O3178       O  0.98367199  0.14627399  0.87840710    -0.22300
C3179       C  0.98448723  0.13520181  0.86607089    -0.02300
C3180       C  0.00011319  0.12778488  0.86463359    -0.16700
H3181       H  0.03472687  0.12639385  0.87308063     0.21300
H3182       H  0.99676259  0.16617290  0.90311676     0.19600
H3183       H  0.02812959  0.17729377  0.91698444     0.19600
H3184       H  0.00444589  0.11932313  0.85506790     0.15500
C3185       C  0.93069607  0.20866551  0.84812898     0.30900
C3186       C  0.93530343  0.22155918  0.85888399    -0.35400
C3187       C  0.92249024  0.23222283  0.86398886     0.16900
C3188       C  0.90618828  0.23057637  0.85877401     0.22700
C3189       C  0.90155433  0.21763531  0.84786476    -0.33600
C3190       C  0.91442982  0.20675738  0.84286215     0.16800
O3191       O  0.94047825  0.19643588  0.84324752    -0.25600
C3192       C  0.93047261  0.18640909  0.83472753     0.06600
C3193       C  0.91408903  0.19222310  0.83395361    -0.30500
O3194       O  0.89620348  0.24176098  0.86573159    -0.22300
C3195       C  0.90635880  0.25052682  0.87551837    -0.02300
C3196       C  0.92278904  0.24508273  0.87490734    -0.16700
H3197       H  0.94791944  0.22280161  0.86347934     0.21300
H3198       H  0.88876125  0.21583280  0.84402267     0.19600
H3199       H  0.90333340  0.18605622  0.82868390     0.19600
H3200       H  0.93340854  0.24980332  0.88174228     0.15500
C3201       C  0.71147653  0.14418057  0.91281545     0.30900
C3202       C  0.71894075  0.13525505  0.89971032    -0.35400
C3203       C  0.73324018  0.12597407  0.90380542     0.16900
C3204       C  0.73970831  0.12552836  0.91971403     0.22700
C3205       C  0.73244776  0.13468157  0.93271947    -0.33600
C3206       C  0.71818487  0.14395055  0.92862890     0.16800
O3207       O  0.69693079  0.15190249  0.91227631    -0.25600
C3208       C  0.69434893  0.15680207  0.92790824     0.06600
C3209       C  0.70726220  0.15231442  0.93858106    -0.30500
O3210       O  0.75226787  0.11500810  0.92112998    -0.22300
C3211       C  0.75402071  0.10869541  0.90591364    -0.02300
C3212       C  0.74257173  0.11511258  0.89456678    -0.16700
H3213       H  0.71350698  0.13490615  0.88738986     0.21300
H3214       H  0.73713498  0.13399297  0.94532570     0.19600
H3215       H  0.70771950  0.15354526  0.95198112     0.19600
H3216       H  0.74090205  0.11170886  0.88164168     0.15500
C3217       C  0.85011758  0.09095151  0.84985123     0.30900
C3218       C  0.85770014  0.10198474  0.83863163    -0.35400
C3219       C  0.87524331  0.10192661  0.83843751     0.16900
C3220       C  0.88468488  0.09181521  0.84865375     0.22700
C3221       C  0.87711240  0.08052441  0.85954330    -0.33600
C3222       C  0.85962105  0.08049049  0.85964386     0.16800
O3223       O  0.83400542  0.08995283  0.85324247    -0.25600
C3224       C  0.83322170  0.07848374  0.86517292     0.06600
C3225       C  0.84877459  0.07213678  0.86952151    -0.30500
O3226       O  0.90081847  0.09489111  0.84759599    -0.22300
C3227       C  0.90179642  0.10700949  0.83638330    -0.02300
C3228       C  0.88627142  0.11178043  0.83017762    -0.16700
H3229       H  0.85046557  0.11047731  0.83106982     0.21300
H3230       H  0.88435029  0.07275650  0.86784282     0.19600
H3231       H  0.85173978  0.06342053  0.87933874     0.19600
H3232       H  0.88347337  0.12173297  0.82156134     0.15500
C3233       C  0.83692817  0.08954557  0.95634191     0.30900
C3234       C  0.84832403  0.10172418  0.96145736    -0.35400
C3235       C  0.84742471  0.10665247  0.97815223     0.16900
C3236       C  0.83624475  0.09984568  0.98920370     0.22700
C3237       C  0.82518363  0.08721774  0.98420605    -0.33600
C3238       C  0.82589402  0.08246091  0.96737252     0.16800
O3239       O  0.83369072  0.08551508  0.94079250    -0.25600
C3240       C  0.82048243  0.07562073  0.94171885     0.06600
C3241       C  0.81519541  0.07305457  0.95800162    -0.30500
O3242       O  0.83585664  0.10801566  0.00348208    -0.22300
C3243       C  0.84692718  0.12017674  0.00153516    -0.02300
C3244       C  0.85460271  0.11982614  0.98606394    -0.16700
H3245       H  0.85636153  0.10795512  0.95267548     0.21300
H3246       H  0.81576473  0.08242987  0.99251427     0.19600
H3247       H  0.80401751  0.06681760  0.96211953     0.19600
H3248       H  0.86310104  0.12885228  0.98088015     0.15500
C3249       C  0.08505741  0.23864620  0.35442283     0.30900
C3250       C  0.07364401  0.23353811  0.34218810    -0.35400
C3251       C  0.07443713  0.21672402  0.33749525     0.16900
C3252       C  0.08577487  0.20572606  0.34432671     0.22700
C3253       C  0.09741116  0.21090830  0.35632330    -0.33600
C3254       C  0.09651980  0.22768838  0.36111663     0.16800
O3255       O  0.08505770  0.25317794  0.36206720    -0.25600
C3256       C  0.09665949  0.25155388  0.37380583     0.06600
C3257       C  0.10431331  0.23598793  0.37373221    -0.30500
O3258       O  0.08299924  0.19022690  0.33972057    -0.22300
C3259       C  0.06980243  0.19127215  0.32970569    -0.02300
C3260       C  0.06399648  0.20748680  0.32776694    -0.16700
H3261       H  0.06414168  0.24184754  0.33741675     0.21300
H3262       H  0.10586137  0.20222686  0.36225725     0.19600
H3263       H  0.11332123  0.23109847  0.38250204     0.19600
H3264       H  0.05287883  0.21163737  0.32133982     0.15500
C3265       C  0.00554978  0.33256818  0.38109354     0.30900
C3266       C  0.02065218  0.33718271  0.38870626    -0.35400
C3267       C  0.02989868  0.32425330  0.39614086     0.16900
C3268       C  0.02459888  0.30793198  0.39619618     0.22700
C3269       C  0.00946000  0.30336229  0.38876396    -0.33600
C3270       C  0.00033338  0.31622119  0.38120600     0.16800
O3271       O  0.99568454  0.34226573  0.37207367    -0.25600
C3272       C  0.98409373  0.33191568  0.36627909     0.06600
C3273       C  0.98636748  0.31561301  0.37163479    -0.30500
O3274       O  0.03583638  0.29762213  0.40242074    -0.22300
C3275       C  0.04852808  0.30742660  0.40652377    -0.02300
C3276       C  0.04550313  0.32413598  0.40293082    -0.16700
H3277       H  0.02524952  0.34980791  0.38818936     0.21300
H3278       H  0.00547007  0.29052839  0.38818711     0.19600
H3279       H  0.97921892  0.30472226  0.36824143     0.19600
H3280       H  0.05401488  0.33448952  0.40407808     0.15500
C3281       C  0.09240882  0.51549568  0.30569825     0.30900
C3282       C  0.10134942  0.50145636  0.30032573    -0.35400
C3283       C  0.10963029  0.49238137  0.31272465     0.16900
C3284       C  0.10901284  0.49662655  0.32935729     0.22700
C3285       C  0.09972792  0.51047895  0.33478948    -0.33600
C3286       C  0.09156210  0.51969752  0.32233626     0.16800
O3287       O  0.08597225  0.52705261  0.29597269    -0.25600
C3288       C  0.08080213  0.53881539  0.30645144     0.06600
C3289       C  0.08376664  0.53481397  0.32304925    -0.30500
O3290       O  0.11900899  0.48730614  0.33857828    -0.22300
C3291       C  0.12611334  0.47701921  0.32766020    -0.02300
C3292       C  0.12067272  0.47957523  0.31142978    -0.16700
H3293       H  0.10266206  0.49845070  0.28726820     0.21300
H3294       H  0.09969842  0.51437656  0.34767875     0.19600
H3295       H  0.08206177  0.54266673  0.33387498     0.19600
H3296       H  0.12487657  0.47341386  0.30020054     0.15500
C3297       C  0.15211190  0.37432826  0.37665043     0.30900
C3298       C  0.15366316  0.35690417  0.37713179    -0.35400
C3299       C  0.14277300  0.34856980  0.38788915     0.16900
C3300       C  0.13121249  0.35682275  0.39758555     0.22700
C3301       C  0.12960694  0.37424138  0.39704569    -0.33600
C3302       C  0.14042738  0.38256797  0.38620876     0.16800
O3303       O  0.16054545  0.38449967  0.36696815    -0.25600
C3304       C  0.15417267  0.39946866  0.37031324     0.06600
C3305       C  0.14156460  0.39901493  0.38216121    -0.30500
O3306       O  0.12179588  0.34653460  0.40617676    -0.22300
C3307       C  0.12734809  0.33147394  0.40191689    -0.02300
C3308       C  0.14039377  0.33197919  0.39055718    -0.16700
H3309       H  0.16248348  0.35028276  0.36937560     0.21300
H3310       H  0.12030457  0.38080333  0.40427348     0.19600
H3311       H  0.13402992  0.40923477  0.38674300     0.19600
H3312       H  0.14672756  0.32163189  0.38464508     0.15500
C3313       C  0.15066647  0.41052307  0.26887541     0.30900
C3314       C  0.14655196  0.41333925  0.25215943    -0.35400
C3315       C  0.13482807  0.40247260  0.24514677     0.16900
C3316       C  0.12757344  0.38967161  0.25392585     0.22700
C3317       C  0.13199298  0.38659396  0.27054465    -0.33600
C3318       C  0.14372929  0.39748664  0.27756969     0.16800
O3319       O  0.15953165  0.42051724  0.27846944    -0.25600
C3320       C  0.15839156  0.41372160  0.29348930     0.06600
C3321       C  0.14883546  0.39929403  0.29361553    -0.30500
O3322       O  0.11528555  0.38253141  0.24561483    -0.22300
C3323       C  0.11479662  0.39080695  0.23129516    -0.02300
C3324       C  0.12677186  0.40321442  0.23029189    -0.16700
H3325       H  0.15133507  0.42391498  0.24540709     0.21300
H3326       H  0.12592902  0.37706576  0.27780436     0.19600
H3327       H  0.14491679  0.39211090  0.30427053     0.19600
H3328       H  0.12831012  0.41241529  0.22061681     0.15500
C3329       C  0.24313918  0.63058872  0.40165058     0.30900
C3330       C  0.23694456  0.64249157  0.41292570    -0.35400
C3331       C  0.22006956  0.64683153  0.41110444     0.16900
C3332       C  0.21001967  0.63993137  0.39897877     0.22700
C3333       C  0.21632441  0.62840817  0.38743595    -0.33600
C3334       C  0.23313579  0.62399419  0.38932745     0.16800
O3335       O  0.25780433  0.62312141  0.40248076    -0.25600
C3336       C  0.25721850  0.61166178  0.39048266     0.06600
C3337       C  0.24219343  0.61171398  0.38184042    -0.30500
O3338       O  0.19414961  0.64353745  0.40117524    -0.22300
C3339       C  0.19397569  0.65301008  0.41476711    -0.02300
C3340       C  0.20978172  0.65568839  0.42136427    -0.16700
H3341       H  0.24442797  0.64714905  0.42311786     0.21300
H3342       H  0.20836212  0.62237301  0.37839704     0.19600
H3343       H  0.23807502  0.60309183  0.37233710     0.19600
H3344       H  0.21296619  0.66160423  0.43304749     0.15500
C3345       C  0.25264524  0.50629707  0.36391819     0.30900
C3346       C  0.24673783  0.49622656  0.35080843    -0.35400
C3347       C  0.23294076  0.48607601  0.35439166     0.16900
C3348       C  0.22548782  0.48585927  0.36982883     0.22700
C3349       C  0.23153186  0.49573589  0.38298049    -0.33600
C3350       C  0.24529468  0.50587411  0.37939794     0.16800
O3351       O  0.26456860  0.51759969  0.36299520    -0.25600
C3352       C  0.26495193  0.52445686  0.37812356     0.06600
C3353       C  0.25326137  0.51756230  0.38884617    -0.30500
O3354       O  0.21209266  0.47634768  0.37018048    -0.22300
C3355       C  0.21091531  0.47024082  0.35479200    -0.02300
C3356       C  0.22362396  0.47583139  0.34443434    -0.16700
H3357       H  0.25217333  0.49668059  0.33851979     0.21300
H3358       H  0.22556944  0.49590992  0.39503307     0.19600
H3359       H  0.25046808  0.52123158  0.40149905     0.19600
H3360       H  0.22531279  0.47329911  0.33132056     0.15500
C3361       C  0.33025300  0.58770196  0.45650709     0.30900
C3362       C  0.34405297  0.59515542  0.46435267    -0.35400
C3363       C  0.34099057  0.60262800  0.47989638     0.16900
C3364       C  0.32540897  0.60271857  0.48712121     0.22700
C3365       C  0.31175179  0.59502761  0.47945819    -0.33600
C3366       C  0.31480218  0.58759275  0.46399162     0.16800
O3367       O  0.32978214  0.58167407  0.44120468    -0.25600
C3368       C  0.31385586  0.57755419  0.43896063     0.06600
C3369       C  0.30401329  0.58087274  0.45278083    -0.30500
O3370       O  0.32482392  0.61179918  0.50074762    -0.22300
C3371       C  0.34023889  0.61754834  0.50247681    -0.02300
C3372       C  0.35093897  0.61215741  0.48993433    -0.16700
H3373       H  0.35610113  0.59580765  0.45839516     0.21300
H3374       H  0.29940600  0.59554044  0.48480654     0.19600
H3375       H  0.29063271  0.57974811  0.45390176     0.19600
H3376       H  0.36377484  0.61566572  0.48790974     0.15500
C3377       C  0.50165747  0.67644149  0.36834629     0.30900
C3378       C  0.51115563  0.69044868  0.37258867    -0.35400
C3379       C  0.52378929  0.68788652  0.38438012     0.16900
C3380       C  0.52692079  0.67257424  0.39149658     0.22700
C3381       C  0.51720159  0.65860801  0.38745799    -0.33600
C3382       C  0.50453070  0.66117159  0.37565015     0.16800
O3383       O  0.48990931  0.67585221  0.35689779    -0.25600
C3384       C  0.48505385  0.66003399  0.35690765     0.06600
C3385       C  0.49367208  0.65029616  0.36836640    -0.30500
O3386       O  0.54055728  0.67257800  0.40071549    -0.22300
C3387       C  0.54615419  0.68811436  0.39957301    -0.02300
C3388       C  0.53610662  0.69821955  0.38970127    -0.16700
H3389       H  0.50925184  0.70236436  0.36662315     0.21300
H3390       H  0.51979109  0.64644927  0.39262637     0.19600
H3391       H  0.49244092  0.63709065  0.37063590     0.19600
H3392       H  0.53838904  0.71089135  0.38580659     0.15500
C3393       C  0.38851435  0.59402033  0.34265816     0.30900
C3394       C  0.38135633  0.58311020  0.35424959    -0.35400
C3395       C  0.36388547  0.58184930  0.35388000     0.16900
C3396       C  0.35408121  0.59071054  0.34287809     0.22700
C3397       C  0.36127232  0.60123093  0.33096579    -0.33600
C3398       C  0.37873794  0.60250389  0.33134218     0.16800
O3399       O  0.40433465  0.59857875  0.34209413    -0.25600
C3400       C  0.40474713  0.61001005  0.33011944     0.06600
C3401       C  0.38918606  0.61281904  0.32292375    -0.30500
O3402       O  0.33797972  0.58918108  0.34600146    -0.22300
C3403       C  0.33744015  0.57904819  0.35907246    -0.02300
C3404       C  0.35319330  0.57398635  0.36438273    -0.16700
H3405       H  0.38880248  0.57674858  0.36350552     0.21300
H3406       H  0.35372772  0.60861220  0.32258581     0.19600
H3407       H  0.38585159  0.62203562  0.31369702     0.19600
H3408       H  0.35632786  0.56656440  0.37516416     0.15500
C3409       C  0.39474533  0.73475315  0.35379716     0.30900
C3410       C  0.40405149  0.72933575  0.33997824    -0.35400
C3411       C  0.40595152  0.71202044  0.33818400     0.16900
C3412       C  0.39904533  0.70088999  0.34921900     0.22700
C3413       C  0.38925543  0.70626481  0.36261868    -0.33600
C3414       C  0.38745557  0.72350494  0.36446390     0.16800
O3415       O  0.39407105  0.75013337  0.35959601    -0.25600
C3416       C  0.38617907  0.74868816  0.37407267     0.06600
C3417       C  0.38152377  0.73243976  0.37757855    -0.30500
O3418       O  0.40433715  0.68555459  0.34680381    -0.22300
C3419       C  0.41460566  0.68669937  0.33390784    -0.02300
C3420       C  0.41600563  0.70286511  0.32787824    -0.16700
H3421       H  0.41047802  0.73800663  0.33199880     0.21300
H3422       H  0.38450356  0.69764278  0.37174857     0.19600
H3423       H  0.37641464  0.72765392  0.38904900     0.19600
H3424       H  0.42431833  0.70739174  0.31834734     0.15500
C3425       C  0.65071760  0.60060472  0.98434036     0.30900
C3426       C  0.64590627  0.59383621  0.96893330    -0.35400
C3427       C  0.65835812  0.58522125  0.96010819     0.16900
C3428       C  0.67437133  0.58325153  0.96612601     0.22700
C3429       C  0.67905761  0.58969108  0.98163356    -0.33600
C3430       C  0.66671137  0.59844285  0.99033118     0.16800
O3431       O  0.64185401  0.61095023  0.99362411    -0.25600
C3432       C  0.65236540  0.61543096  0.00565071     0.06600
C3433       C  0.66792959  0.60792505  0.00427183    -0.30500
O3434       O  0.68459004  0.57679345  0.95502280    -0.22300
C3435       C  0.67505422  0.57451863  0.94169301    -0.02300
C3436       C  0.65856803  0.57940842  0.94416575    -0.16700
H3437       H  0.63367235  0.59607695  0.96370357     0.21300
H3438       H  0.69176352  0.58892063  0.98609104     0.19600
H3439       H  0.67892850  0.61013210  0.01175696     0.19600
H3440       H  0.64861798  0.58002480  0.93507681     0.15500
C3441       C  0.72915404  0.62144176  0.09495412     0.30900
C3442       C  0.71196201  0.62393840  0.09685032    -0.35400
C3443       C  0.70469555  0.63608585  0.08662133     0.16900
C3444       C  0.71370479  0.64533825  0.07536376     0.22700
C3445       C  0.73105137  0.64329050  0.07393931    -0.33600
C3446       C  0.73831474  0.63097343  0.08405660     0.16800
O3447       O  0.73782697  0.60892307  0.10118030    -0.25600
C3448       C  0.75281279  0.61049356  0.09433922     0.06600
C3449       C  0.75389486  0.62411817  0.08372641    -0.30500
O3450       O  0.70401357  0.65392952  0.06514852    -0.22300
C3451       C  0.68863235  0.65015781  0.07000487    -0.02300
C3452       C  0.68836327  0.63929692  0.08344576    -0.16700
H3453       H  0.70453767  0.61600463  0.10473645     0.21300
H3454       H  0.73816154  0.64985240  0.06463199     0.19600
H3455       H  0.76415255  0.62747612  0.07571154     0.19600
H3456       H  0.67766148  0.63330247  0.08894580     0.15500
C3457       C  0.62864367  0.57190779  0.24591792     0.30900
C3458       C  0.63747048  0.55866361  0.25313649    -0.35400
C3459       C  0.64280706  0.56107084  0.26956046     0.16900
C3460       C  0.63977141  0.57559226  0.27826731     0.22700
C3461       C  0.63130938  0.58904334  0.27087810    -0.33600
C3462       C  0.62584725  0.58658324  0.25445069     0.16800
O3463       O  0.62065966  0.57136237  0.23161661    -0.25600
C3464       C  0.61272397  0.58589949  0.23082432     0.06600
C3465       C  0.61560297  0.59599848  0.24461797    -0.30500
O3466       O  0.64395255  0.57434611  0.29409391    -0.22300
C3467       C  0.64981620  0.55887728  0.29551160    -0.02300
C3468       C  0.64952841  0.55008605  0.28060459    -0.16700
H3469       H  0.63910319  0.54689626  0.24676110     0.21300
H3470       H  0.62826607  0.60021069  0.27780015     0.19600
H3471       H  0.60987075  0.60785173  0.24758482     0.19600
H3472       H  0.65251620  0.53709866  0.27853781     0.15500
C3473       C  0.51331869  0.62017753  0.23775174     0.30900
C3474       C  0.50434130  0.63362174  0.24464685    -0.35400
C3475       C  0.49373683  0.62986434  0.25803482     0.16900
C3476       C  0.49226725  0.61400228  0.26436341     0.22700
C3477       C  0.50115522  0.60054984  0.25740258    -0.33600
C3478       C  0.51156550  0.60426284  0.24386771     0.16800
O3479       O  0.52437784  0.62097195  0.22559976    -0.25600
C3480       C  0.52966787  0.60531713  0.22372300     0.06600
C3481       C  0.52205381  0.59437929  0.23474683    -0.30500
O3482       O  0.48214070  0.61337835  0.27729817    -0.22300
C3483       C  0.47681442  0.62900891  0.27920463    -0.02300
C3484       C  0.48362882  0.63981416  0.26753368    -0.16700
H3485       H  0.50566915  0.64617063  0.24001028     0.21300
H3486       H  0.50014991  0.58807482  0.26231097     0.19600
H3487       H  0.52444113  0.58120927  0.23629292     0.19600
H3488       H  0.48176660  0.65311853  0.26650611     0.15500
C3489       C  0.59550154  0.64119811  0.09902882     0.30900
C3490       C  0.58409850  0.63029071  0.10638894    -0.35400
C3491       C  0.58396051  0.62999968  0.12383103     0.16900
C3492       C  0.59441827  0.63967469  0.13343504     0.22700
C3493       C  0.60556713  0.65090313  0.12606469    -0.33600
C3494       C  0.60560357  0.65129793  0.10858560     0.16800
O3495       O  0.59902394  0.64200659  0.08303259    -0.25600
C3496       C  0.61135423  0.65297930  0.08225052     0.06600
C3497       C  0.61585883  0.65930847  0.09775607    -0.30500
O3498       O  0.59340565  0.63608908  0.14944162    -0.22300
C3499       C  0.58197003  0.62413158  0.15009730    -0.02300
C3500       C  0.57561996  0.61993391  0.13453280    -0.16700
H3501       H  0.57643909  0.62201376  0.09902652     0.21300
H3502       H  0.61414744  0.65824222  0.13341065     0.19600
H3503       H  0.62616211  0.66745081  0.10072586     0.19600
H3504       H  0.56695316  0.61010647  0.13145731     0.15500
C3505       C  0.60996896  0.50510250  0.14066680     0.30900
C3506       C  0.60818061  0.52235850  0.13892022    -0.35400
C3507       C  0.59658867  0.53006513  0.14945699     0.16900
C3508       C  0.58719168  0.52144011  0.16088759     0.22700
C3509       C  0.58867454  0.50404115  0.16233760    -0.33600
C3510       C  0.60041422  0.49630712  0.15184544     0.16800
O3511       O  0.62182128  0.49594946  0.13388569    -0.25600
C3512       C  0.61981819  0.48101608  0.14064488     0.06600
C3513       C  0.60654899  0.48042954  0.15176912    -0.30500
O3514       O  0.57863164  0.53147394  0.17082710    -0.22300
C3515       C  0.58261846  0.54667894  0.16560913    -0.02300
C3516       C  0.59366251  0.54648231  0.15230808    -0.16700
H3517       H  0.61611048  0.52944582  0.13072419     0.21300
H3518       H  0.58196189  0.49717123  0.17171678     0.19600
H3519       H  0.60305246  0.47027478  0.15984040     0.19600
H3520       H  0.59962241  0.55697110  0.14639504     0.15500
C3521       C  0.58368932  0.02078945  0.82201486     0.30900
C3522       C  0.58740722  0.00403706  0.81840348    -0.35400
C3523       C  0.59876212  0.99612208  0.82916565     0.16900
C3524       C  0.60599246  0.00416139  0.84252676     0.22700
C3525       C  0.60211650  0.02080352  0.84625158    -0.33600
C3526       C  0.59073972  0.02868092  0.83555399     0.16800
O3527       O  0.57489776  0.03108886  0.81261881    -0.25600
C3528       C  0.57620793  0.04573253  0.82033357     0.06600
C3529       C  0.58583776  0.04490328  0.83472963    -0.30500
O3530       O  0.61745638  0.99500247  0.84998137    -0.22300
C3531       C  0.61752437  0.98081432  0.84141358    -0.02300
C3532       C  0.60608571  0.98077296  0.82834528    -0.16700
H3533       H  0.58241304  0.99784967  0.80752557     0.21300
H3534       H  0.60814461  0.02738916  0.85634378     0.19600
H3535       H  0.58984711  0.05507089  0.84261767     0.19600
H3536       H  0.60427574  0.97127968  0.81894422     0.15500
C3537       C  0.72446200  0.98895679  0.85992774     0.30900
C3538       C  0.73803751  0.99868302  0.85473661    -0.35400
C3539       C  0.74634885  0.00774909  0.86723910     0.16900
C3540       C  0.74168905  0.00722805  0.88373420     0.22700
C3541       C  0.72815609  0.99748368  0.88891911    -0.33600
C3542       C  0.71982192  0.98847945  0.87642698     0.16800
O3543       O  0.71453279  0.97998830  0.85028372    -0.25600
C3544       C  0.70341647  0.97361232  0.86076926     0.06600
C3545       C  0.70611205  0.97853115  0.87717850    -0.30500
O3546       O  0.75056198  0.01738870  0.89318607    -0.22300
C3547       C  0.76105801  0.02460297  0.88263321    -0.02300
C3548       C  0.75901794  0.01902181  0.86632014    -0.16700
H3549       H  0.74162709  0.99943761  0.84180423     0.21300
H3550       H  0.72414946  0.99724742  0.90175006     0.19600
H3551       H  0.69877951  0.97551770  0.88802956     0.19600
H3552       H  0.76542841  0.02322556  0.85528822     0.15500
C3553       C  0.64439838  0.91368426  0.77539830     0.30900
C3554       C  0.63795795  0.89984638  0.76677643    -0.35400
C3555       C  0.62795826  0.90340639  0.75283505     0.16900
C3556       C  0.62456149  0.91948462  0.74783245     0.22700
C3557       C  0.63130648  0.93324374  0.75617034    -0.33600
C3558       C  0.64129808  0.92969591  0.77001635     0.16800
O3559       O  0.65204820  0.91339109  0.78996152    -0.25600
C3560       C  0.65399798  0.92941037  0.79382785     0.06600
C3561       C  0.64771738  0.94008549  0.78175305    -0.30500
O3562       O  0.61377840  0.92012450  0.73549808    -0.22300
C3563       C  0.61028949  0.90426628  0.73232014    -0.02300
C3564       C  0.61882112  0.89323652  0.74265237    -0.16700
H3565       H  0.63987207  0.88725952  0.77113918     0.21300
H3566       H  0.62827786  0.94587294  0.75260572     0.19600
H3567       H  0.64645805  0.95348919  0.78238888     0.19600
H3568       H  0.61781386  0.87982119  0.74311145     0.15500
C3569       C  0.58501642  0.72954739  0.85438813     0.30900
C3570       C  0.57417946  0.72276669  0.84242944    -0.35400
C3571       C  0.57440359  0.70535078  0.84087887     0.16900
C3572       C  0.58455863  0.69532463  0.85049210     0.22700
C3573       C  0.59574913  0.70212428  0.86203917    -0.33600
C3574       C  0.59554663  0.71949830  0.86356453     0.16800
O3575       O  0.58506161  0.74512632  0.85966489    -0.25600
C3576       C  0.59588343  0.74504879  0.87224965     0.06600
C3577       C  0.60292893  0.72948516  0.87507774    -0.30500
O3578       O  0.58112543  0.67939121  0.84874301    -0.22300
C3579       C  0.56879463  0.67914263  0.83767015    -0.02300
C3580       C  0.56419321  0.69491742  0.83220022    -0.16700
H3581       H  0.56540723  0.73042396  0.83561929     0.21300
H3582       H  0.60328502  0.69434825  0.87007169     0.19600
H3583       H  0.61097923  0.72574499  0.88522767     0.19600
H3584       H  0.55387805  0.69825160  0.82416836     0.15500
C3585       C  0.62348947  0.74189311  0.97203856     0.30900
C3586       C  0.63688715  0.73427930  0.98045437    -0.35400
C3587       C  0.63279859  0.72113270  0.99119884     0.16900
C3588       C  0.61664013  0.71581213  0.99343706     0.22700
C3589       C  0.60323856  0.72357623  0.98522860    -0.33600
C3590       C  0.60731165  0.73677462  0.97458561     0.16800
O3591       O  0.62455964  0.75352052  0.96048312    -0.25600
C3592       C  0.60883438  0.75603956  0.95570392     0.06600
C3593       C  0.59757081  0.74603803  0.96417026    -0.30500
O3594       O  0.61568869  0.70286548  0.00346294    -0.22300
C3595       C  0.63142586  0.69988765  0.00787606    -0.02300
C3596       C  0.64262961  0.71088522  0.00062682    -0.16700
H3597       H  0.64964371  0.73804999  0.97843371     0.21300
H3598       H  0.59054930  0.71936246  0.98673869     0.19600
H3599       H  0.58427853  0.74499663  0.96216881     0.19600
H3600       H  0.65605552  0.71106378  0.00184929     0.15500
C3601       C  0.62953657  0.85357098  0.89711122     0.30900
C3602       C  0.62987051  0.87085927  0.89983268    -0.35400
C3603       C  0.63843871  0.88031296  0.88795157     0.16900
C3604       C  0.64634831  0.87320316  0.87445434     0.22700
C3605       C  0.64609012  0.85591194  0.87177767    -0.33600
C3606       C  0.63735197  0.84648959  0.88354306     0.16800
O3607       O  0.62121802  0.84256737  0.90595524    -0.25600
C3608       C  0.62370953  0.82824179  0.89795232     0.06600
C3609       C  0.63369463  0.82992688  0.88393065    -0.30500
O3610       O  0.65289963  0.88440744  0.86446472    -0.22300
C3611       C  0.64906812  0.89892374  0.87156043    -0.02300
C3612       C  0.64007217  0.89714070  0.88622755    -0.16700
H3613       H  0.62340080  0.87659081  0.91016774     0.21300
H3614       H  0.65182226  0.85026391  0.86097370     0.19600
H3615       H  0.63711352  0.82047108  0.87494147     0.19600
H3616       H  0.63503926  0.90682797  0.89415275     0.15500
C3617       C  0.50073516  0.82254746  0.87681757     0.30900
C3618       C  0.51287833  0.82709355  0.88861734    -0.35400
C3619       C  0.52366235  0.81430252  0.89393182     0.16900
C3620       C  0.52232176  0.79812692  0.88825656     0.22700
C3621       C  0.51008535  0.79355396  0.87671224    -0.33600
C3622       C  0.49958996  0.80634454  0.87119239     0.16800
O3623       O  0.49041488  0.83269761  0.86888618    -0.25600
C3624       C  0.48274662  0.82278914  0.85800943     0.06600
C3625       C  0.48792509  0.80630245  0.85897977    -0.30500
O3626       O  0.53467752  0.78857155  0.89331059    -0.22300
C3627       C  0.54418973  0.79866720  0.90232615    -0.02300
C3628       C  0.53791639  0.81484287  0.90324792    -0.16700
H3629       H  0.51441225  0.83985115  0.89264663     0.21300
H3630       H  0.50943530  0.78108863  0.87163416     0.19600
H3631       H  0.48408210  0.79589764  0.85132073     0.19600
H3632       H  0.54371111  0.82566618  0.90878030     0.15500
C3633       C  0.13006508  0.09380306  0.75388309     0.30900
C3634       C  0.13319010  0.09596462  0.77089370    -0.35400
C3635       C  0.14483786  0.08505413  0.77800208     0.16900
C3636       C  0.15305762  0.07288714  0.76901488     0.22700
C3637       C  0.15031853  0.07106611  0.75183284    -0.33600
C3638       C  0.13849803  0.08190074  0.74473021     0.16800
O3639       O  0.11772221  0.10072848  0.74550657    -0.25600
C3640       C  0.11826845  0.09328777  0.73073636     0.06600
C3641       C  0.13107914  0.08160342  0.72946502    -0.30500
O3642       O  0.16142126  0.06246520  0.77866809    -0.22300
C3643       C  0.15853105  0.06811665  0.79398673    -0.02300
C3644       C  0.14843651  0.08221672  0.79425292    -0.16700
H3645       H  0.12604734  0.10465061  0.77834699     0.21300
H3646       H  0.15600216  0.06107129  0.74477416     0.19600
H3647       H  0.13343460  0.07294833  0.71939337     0.19600
H3648       H  0.14319192  0.08848496  0.80497643     0.15500
C3649       C  0.01420549  0.11947345  0.74071624     0.30900
C3650       C  0.00703270  0.13234855  0.75024021    -0.35400
C3651       C  0.99420323  0.12771998  0.76115393     0.16900
C3652       C  0.98879334  0.11151861  0.76262765     0.22700
C3653       C  0.99584136  0.09866819  0.75295868    -0.33600
C3654       C  0.00870455  0.10329156  0.74205700     0.16800
O3655       O  0.02707772  0.12085639  0.73058830    -0.25600
C3656       C  0.02992202  0.10536353  0.72530020     0.06600
C3657       C  0.01880202  0.09391526  0.73199826    -0.30500
O3658       O  0.97746396  0.10979152  0.77442008    -0.22300
C3659       C  0.97545992  0.12511530  0.78051961    -0.02300
C3660       C  0.98553389  0.13678082  0.77267465    -0.16700
H3661       H  0.01150544  0.14501029  0.74957026     0.21300
H3662       H  0.99194165  0.08586697  0.75424408     0.19600
H3663       H  0.01865483  0.08055501  0.73027835     0.19600
H3664       H  0.98686034  0.14986503  0.77559750     0.15500
C3665       C  0.11907904  0.99891499  0.67042768     0.30900
C3666       C  0.11435012  0.00827241  0.68437882    -0.35400
C3667       C  0.10226870  0.02059494  0.68166071     0.16900
C3668       C  0.09543795  0.02374318  0.66621944     0.22700
C3669       C  0.10000873  0.01417193  0.65224574    -0.33600
C3670       C  0.11202065  0.00166857  0.65500751     0.16800
O3671       O  0.13054518  0.98715359  0.67016019    -0.25600
C3672       C  0.13081348  0.98211316  0.65440022     0.06600
C3673       C  0.11952491  0.99067170  0.64435240    -0.30500
O3674       O  0.08570173  0.03706902  0.66627488    -0.22300
C3675       C  0.08614191  0.04230505  0.68202043    -0.02300
C3676       C  0.09614415  0.03241547  0.69213155    -0.16700
H3677       H  0.12001554  0.00635521  0.69644575     0.21300
H3678       H  0.09494162  0.01662043  0.64001549     0.19600
H3679       H  0.11738536  0.98919197  0.63114186     0.19600
H3680       H  0.09957085  0.03451369  0.70499163     0.15500
C3681       C  0.17203543  0.11319057  0.48468436     0.30900
C3682       C  0.18564132  0.10687402  0.47574738    -0.35400
C3683       C  0.18187401  0.09845644  0.46095214     0.16900
C3684       C  0.16579544  0.09637697  0.45524012     0.22700
C3685       C  0.15208900  0.10252202  0.46434787    -0.33600
C3686       C  0.15587565  0.11097843  0.47924077     0.16800
O3687       O  0.17294456  0.12244226  0.49818548    -0.25600
C3688       C  0.15718222  0.12620876  0.50163788     0.06600
C3689       C  0.14593565  0.11933721  0.49032717    -0.30500
O3690       O  0.16534312  0.08937285  0.44033492    -0.22300
C3691       C  0.18134172  0.08684554  0.43658053    -0.02300
C3692       C  0.19213544  0.09221080  0.44900241    -0.16700
H3693       H  0.19834575  0.10891760  0.47975790     0.21300
H3694       H  0.13943835  0.10133088  0.45984458     0.19600
H3695       H  0.13254558  0.12090790  0.48991266     0.19600
H3696       H  0.20561332  0.09245686  0.44877962     0.15500
C3697       C  0.11968757  0.22347544  0.50133711     0.30900
C3698       C  0.10625473  0.23107435  0.49304364    -0.35400
C3699       C  0.11034308  0.24321986  0.48122990     0.16900
C3700       C  0.12656445  0.24761269  0.47778390     0.22700
C3701       C  0.14002662  0.24018654  0.48629588    -0.33600
C3702       C  0.13592602  0.22801202  0.49814025     0.16800
O3703       O  0.11868212  0.21087322  0.51176723    -0.25600
C3704       C  0.13445971  0.20729046  0.51547516     0.06600
C3705       C  0.14576681  0.21763485  0.50743872    -0.30500
O3706       O  0.12755858  0.25831239  0.46534931    -0.22300
C3707       C  0.11175550  0.26091635  0.46083832    -0.02300
C3708       C  0.10051864  0.25187511  0.47036278    -0.16700
H3709       H  0.09351737  0.22731552  0.49520149     0.21300
H3710       H  0.15281875  0.24324076  0.48344294     0.19600
H3711       H  0.15923518  0.21694388  0.50764373     0.19600
H3712       H  0.08713556  0.25113595  0.46891721     0.15500
C3713       C  0.09682784  0.13740195  0.63496508     0.30900
C3714       C  0.10651169  0.14997657  0.62771697    -0.35400
C3715       C  0.10781221  0.14955299  0.61028855     0.16900
C3716       C  0.10022278  0.13751407  0.60065699     0.22700
C3717       C  0.09030693  0.12513847  0.60787701    -0.33600
C3718       C  0.08891777  0.12562675  0.62527000     0.16800
O3719       O  0.09489566  0.13468140  0.65105411    -0.25600
C3720       C  0.08545244  0.12109837  0.65164276     0.06600
C3721       C  0.08131056  0.11498959  0.63597031    -0.30500
O3722       O  0.10437631  0.13850649  0.58480581    -0.22300
C3723       C  0.11460331  0.15148892  0.58420157    -0.02300
C3724       C  0.11710690  0.15890517  0.59968198    -0.16700
H3725       H  0.11305014  0.15909156  0.63517194     0.21300
H3726       H  0.08456900  0.11544048  0.60050257     0.19600
H3727       H  0.07441259  0.10383849  0.63293677     0.19600
H3728       H  0.12544574  0.16899561  0.60281683     0.15500
C3729       C  0.21511702  0.14633890  0.57897351     0.30900
C3730       C  0.23259991  0.14547119  0.57838606    -0.35400
C3731       C  0.23996976  0.13185120  0.58655736     0.16900
C3732       C  0.23075867  0.12006880  0.59492829     0.22700
C3733       C  0.21339319  0.12117168  0.59588045    -0.33600
C3734       C  0.20605124  0.13460295  0.58756237     0.16800
O3735       O  0.20552054  0.15628039  0.56999061    -0.25600
C3736       C  0.19018840  0.15076897  0.57292381     0.06600
C3737       C  0.18980541  0.13746327  0.58390717    -0.30500
O3738       O  0.23977934  0.10721137  0.59967237    -0.22300
C3739       C  0.25500748  0.11073145  0.59434612    -0.02300
C3740       C  0.25593450  0.12597315  0.58620042    -0.16700
H3741       H  0.23983411  0.15404914  0.57101623     0.21300
H3742       H  0.20602842  0.11151270  0.60161068     0.19600
H3743       H  0.17921439  0.12993463  0.58736405     0.19600
H3744       H  0.26646513  0.13119692  0.57968400     0.15500
C3745       C  0.87652097  0.99548582  0.16542260     0.30900
C3746       C  0.88354802  0.00372125  0.17914724    -0.35400
C3747       C  0.89289320  0.01799382  0.17563737     0.16900
C3748       C  0.89524181  0.02378047  0.15968161     0.22700
C3749       C  0.88848963  0.01529568  0.14587175    -0.33600
C3750       C  0.87903494  0.00101653  0.14939851     0.16800
O3751       O  0.86606450  0.98290976  0.16611269    -0.25600
C3752       C  0.86180696  0.98017559  0.15033981     0.06600
C3753       C  0.86959464  0.99099262  0.13931732    -0.30500
O3754       O  0.90269801  0.03843752  0.15945743    -0.22300
C3755       C  0.90525267  0.04203001  0.17547117    -0.02300
C3756       C  0.89950033  0.02965611  0.18606266    -0.16700
H3757       H  0.88116321  0.99976057  0.19176452     0.21300
H3758       H  0.88977561  0.01998958  0.13334793     0.19600
H3759       H  0.86784491  0.99191560  0.12600539     0.19600
H3760       H  0.89897553  0.02989218  0.19950910     0.15500
C3761       C  0.83714630  0.90386970  0.20668395     0.30900
C3762       C  0.83683852  0.90276849  0.22412019    -0.35400
C3763       C  0.84948793  0.89309161  0.23145216     0.16900
C3764       C  0.86156155  0.88500125  0.22223760     0.22700
C3765       C  0.86165698  0.88579822  0.20482807    -0.33600
C3766       C  0.84911617  0.89554703  0.19754086     0.16800
O3767       O  0.82783594  0.91381800  0.19740931    -0.25600
C3768       C  0.83396346  0.91179309  0.18216606     0.06600
C3769       C  0.84712305  0.90049352  0.18152491    -0.30500
O3770       O  0.87351194  0.87867455  0.23157862    -0.22300
C3771       C  0.86903075  0.88260129  0.24701935    -0.02300
C3772       C  0.85408986  0.89144512  0.24771159    -0.16700
H3773       H  0.82801601  0.90980664  0.23149919     0.21300
H3774       H  0.87148226  0.88013112  0.19753587     0.19600
H3775       H  0.85485066  0.89729369  0.17096314     0.19600
H3776       H  0.84840518  0.89728456  0.25844554     0.15500
C3777       C  0.89908337  0.70402012  0.14487952     0.30900
C3778       C  0.88649808  0.70960121  0.13407426    -0.35400
C3779       C  0.88764469  0.72619579  0.12886843     0.16900
C3780       C  0.90021488  0.73665191  0.13411695     0.22700
C3781       C  0.91262610  0.73116229  0.14518161    -0.33600
C3782       C  0.91158064  0.71450204  0.15025212     0.16800
O3783       O  0.90169803  0.68844853  0.14931234    -0.25600
C3784       C  0.91598716  0.68891303  0.15772893     0.06600
C3785       C  0.92265823  0.70483630  0.15882579    -0.30500
O3786       O  0.90012905  0.75094479  0.12611224    -0.22300
C3787       C  0.88736420  0.74965303  0.11559749    -0.02300
C3788       C  0.87905998  0.73455652  0.11683031    -0.16700
H3789       H  0.87712905  0.70126580  0.12917505     0.21300
H3790       H  0.92298621  0.73900311  0.14870163     0.19600
H3791       H  0.93464649  0.70845816  0.16381123     0.19600
H3792       H  0.86910755  0.72989357  0.10902649     0.15500
C3793       C  0.84328263  0.84696679  0.09514178     0.30900
C3794       C  0.83130299  0.85512166  0.10501174    -0.35400
C3795       C  0.83166361  0.87262821  0.10481238     0.16900
C3796       C  0.84315967  0.88149678  0.09572163     0.22700
C3797       C  0.85501771  0.87335591  0.08576893    -0.33600
C3798       C  0.85452249  0.85589819  0.08580302     0.16800
O3799       O  0.84569106  0.83070177  0.09394730    -0.25600
C3800       C  0.85850881  0.82924038  0.08352492     0.06600
C3801       C  0.86446736  0.84451575  0.07808295    -0.30500
O3802       O  0.84216073  0.89769936  0.09839278    -0.22300
C3803       C  0.82970581  0.89931812  0.10918261    -0.02300
C3804       C  0.82265661  0.88411885  0.11354901    -0.16700
H3805       H  0.82255511  0.84830876  0.11258856     0.21300
H3806       H  0.86425087  0.88015615  0.07878187     0.19600
H3807       H  0.87500050  0.84688471  0.07006492     0.19600
H3808       H  0.81307017  0.88180659  0.12269223     0.15500
C3809       C  0.98225390  0.81043511  0.10866809     0.30900
C3810       C  0.97360921  0.79622094  0.10350271    -0.35400
C3811       C  0.96017186  0.79893162  0.09272519     0.16900
C3812       C  0.95552667  0.81457477  0.08733320     0.22700
C3813       C  0.96449858  0.82880944  0.09217929    -0.33600
C3814       C  0.97794269  0.82610568  0.10309336     0.16800
O3815       O  0.99408478  0.81078751  0.11998327    -0.25600
C3816       C  0.99755369  0.82685979  0.12173323     0.06600
C3817       C  0.98799826  0.83704968  0.11143848    -0.30500
O3818       O  0.94117556  0.81442250  0.07925935    -0.22300
C3819       C  0.93670754  0.79847197  0.07938768    -0.02300
C3820       C  0.94816164  0.78826840  0.08744579    -0.16700
H3821       H  0.97656194  0.78399781  0.10832596     0.21300
H3822       H  0.96065387  0.84118765  0.08851458     0.19600
H3823       H  0.98790368  0.85049931  0.11081414     0.19600
H3824       H  0.94695539  0.77520367  0.09045123     0.15500
C3825       C  0.35943998  0.06237661  0.23416233     0.30900
C3826       C  0.35291583  0.04864145  0.22565673    -0.35400
C3827       C  0.34197745  0.05220098  0.21256614     0.16900
C3828       C  0.33775146  0.06821012  0.20798993     0.22700
C3829       C  0.34407198  0.08204380  0.21676511    -0.33600
C3830       C  0.35507707  0.07845988  0.22996541     0.16800
O3831       O  0.37070077  0.06173549  0.24604745    -0.25600
C3832       C  0.37365056  0.07758774  0.24971595     0.06600
C3833       C  0.36424089  0.08863357  0.24015484    -0.30500
O3834       O  0.32902544  0.06857406  0.19400314    -0.22300
C3835       C  0.32756739  0.05257570  0.18974605    -0.02300
C3836       C  0.33524501  0.04189062  0.20097435    -0.16700
H3837       H  0.35668260  0.03604145  0.22859427     0.21300
H3838       H  0.34123539  0.09468263  0.21308242     0.19600
H3839       H  0.36452620  0.10209583  0.24031858     0.19600
H3840       H  0.33701940  0.02857224  0.19986560     0.15500
C3841       C  0.37443377  0.00393790  0.34153362     0.30900
C3842       C  0.37744377  0.02096123  0.34391477    -0.35400
C3843       C  0.38922876  0.02815890  0.33331023     0.16900
C3844       C  0.39764592  0.01921911  0.32126179     0.22700
C3845       C  0.39489781  0.00208655  0.31912745    -0.33600
C3846       C  0.38297721  0.99491009  0.32964024     0.16800
O3847       O  0.36246329  0.99527270  0.34859988    -0.25600
C3848       C  0.36339083  0.98045674  0.34123131     0.06600
C3849       C  0.37599631  0.97947529  0.32940168    -0.30500
O3850       O  0.40640581  0.02886586  0.31130422    -0.22300
C3851       C  0.40355223  0.04416371  0.31706020    -0.02300
C3852       C  0.39307548  0.04443048  0.33082060    -0.16700
H3853       H  0.37030474  0.02831136  0.35267969     0.21300
H3854       H  0.40082635  0.99508300  0.30925394     0.19600
H3855       H  0.37874759  0.96930119  0.32098297     0.19600
H3856       H  0.38786310  0.05517351  0.33711246     0.15500
C3857       C  0.33212167  0.10704991  0.49630629     0.30900
C3858       C  0.33705820  0.09706352  0.50982140    -0.35400
C3859       C  0.32414155  0.09047903  0.51959964     0.16900
C3860       C  0.30752694  0.09350512  0.51627468     0.22700
C3861       C  0.30259886  0.10318267  0.50262090    -0.33600
C3862       C  0.31547120  0.10979769  0.49294037     0.16800
O3863       O  0.34202667  0.11566080  0.48639592    -0.25600
C3864       C  0.33151448  0.12399260  0.47659171     0.06600
C3865       C  0.31487865  0.12072214  0.48008377    -0.30500
O3866       O  0.29760573  0.08781723  0.52800206    -0.22300
C3867       C  0.30791832  0.08088065  0.53898238    -0.02300
C3868       C  0.32459093  0.08204276  0.53433194    -0.16700
H3869       H  0.35004302  0.09520856  0.51296140     0.21300
H3870       H  0.28964009  0.10606438  0.50020877     0.19600
H3871       H  0.30391358  0.12621677  0.47443995     0.19600
H3872       H  0.33548230  0.07845631  0.54144339     0.15500
C3873       C  0.37912836  0.14914409  0.37121117     0.30900
C3874       C  0.37716520  0.14845208  0.35383510    -0.35400
C3875       C  0.38854042  0.13830429  0.34519218     0.16900
C3876       C  0.40110489  0.12959898  0.35309612     0.22700
C3877       C  0.40308627  0.13032813  0.37045342    -0.33600
C3878       C  0.39156907  0.14027007  0.37911730     0.16800
O3879       O  0.36912437  0.15679656  0.38179752    -0.25600
C3880       C  0.37513192  0.15268356  0.39669972     0.06600
C3881       C  0.38908657  0.14238980  0.39578954    -0.30500
O3882       O  0.40953407  0.11990304  0.34281812    -0.22300
C3883       C  0.40228995  0.12235804  0.32810993    -0.02300
C3884       C  0.38916190  0.13372852  0.32882896    -0.16700
H3885       H  0.36705686  0.15482698  0.34757464     0.21300
H3886       H  0.41250303  0.12307195  0.37682231     0.19600
H3887       H  0.39593121  0.13672425  0.40592009     0.19600
H3888       H  0.38072631  0.13733887  0.31894803     0.15500
C3889       C  0.27483808  0.14957074  0.40532043     0.30900
C3890       C  0.25745376  0.14796379  0.40654857    -0.35400
C3891       C  0.25010927  0.13581258  0.39631074     0.16900
C3892       C  0.25922735  0.12590275  0.38559576     0.22700
C3893       C  0.27651830  0.12775147  0.38410002    -0.33600
C3894       C  0.28384251  0.13985629  0.39433983     0.16800
O3895       O  0.28451501  0.15856850  0.41517671    -0.25600
C3896       C  0.29989569  0.15459428  0.41035346     0.06600
C3897       C  0.30016239  0.14311320  0.39736371    -0.30500
O3898       O  0.25025705  0.11388332  0.37890359    -0.22300
C3899       C  0.23514210  0.11619230  0.38527706    -0.02300
C3900       C  0.23428209  0.12975019  0.39605990    -0.16700
H3901       H  0.25029315  0.15496454  0.41557243     0.21300
H3902       H  0.28388968  0.11960582  0.37627468     0.19600
H3903       H  0.31088100  0.13699770  0.39190119     0.19600
H3904       H  0.22390981  0.13358756  0.40376553     0.15500
C3905       C  0.43039143  0.21350815  0.63660343     0.30900
C3906       C  0.43546800  0.22788540  0.62818688    -0.35400
C3907       C  0.42280528  0.23721740  0.62053395     0.16900
C3908       C  0.40619506  0.23290955  0.62124448     0.22700
C3909       C  0.40108704  0.21856338  0.62979966    -0.33600
C3910       C  0.41380696  0.20909942  0.63733746     0.16800
O3911       O  0.44034491  0.20211467  0.64309005    -0.25600
C3912       C  0.43005526  0.19020755  0.64812135     0.06600
C3913       C  0.41337425  0.19393115  0.64493518    -0.30500
O3914       O  0.39661966  0.24293528  0.61229071    -0.22300
C3915       C  0.40730993  0.25370475  0.60571348    -0.02300
C3916       C  0.42372861  0.25072413  0.61044298    -0.16700
H3917       H  0.44847445  0.23115827  0.62703522     0.21300
H3918       H  0.38820163  0.21467524  0.62997661     0.19600
H3919       H  0.40263887  0.18605476  0.64680222     0.19600
H3920       H  0.43481283  0.25724799  0.60652569     0.15500
C3921       C  0.38297135  0.24312827  0.50580258     0.30900
C3922       C  0.38850992  0.23202350  0.49333243    -0.35400
C3923       C  0.37608279  0.22275132  0.48505465     0.16900
C3924       C  0.35937378  0.22439256  0.48872414     0.22700
C3925       C  0.35388583  0.23534996  0.50123219    -0.33600
C3926       C  0.36626282  0.24449762  0.50954567     0.16800
O3927       O  0.39235477  0.25279694  0.51537993    -0.25600
C3928       C  0.38146356  0.26040665  0.52541356     0.06600
C3929       C  0.36509334  0.25560501  0.52234159    -0.30500
O3930       O  0.34988510  0.21431439  0.47980298    -0.22300
C3931       C  0.36058613  0.20594613  0.47025965    -0.02300
C3932       C  0.37709363  0.21067213  0.47302907    -0.16700
H3933       H  0.40158957  0.23055425  0.49043376     0.21300
H3934       H  0.34084761  0.23650314  0.50442733     0.19600
H3935       H  0.35393998  0.25957384  0.52879248     0.19600
H3936       H  0.38822495  0.20565199  0.46729921     0.15500
C3937       C  0.46411260  0.32706900  0.58554077     0.30900
C3938       C  0.48163571  0.32677812  0.58670365    -0.35400
C3939       C  0.48865352  0.33584915  0.59999317     0.16900
C3940       C  0.47904414  0.34457334  0.61128758     0.22700
C3941       C  0.46167458  0.34515746  0.60991668    -0.33600
C3942       C  0.45471429  0.33610886  0.59675362     0.16800
O3943       O  0.45475227  0.31790800  0.57548842    -0.25600
C3944       C  0.43922256  0.32123928  0.58039400     0.06600
C3945       C  0.43853833  0.33255898  0.59347441    -0.30500
O3946       O  0.48776782  0.35035417  0.62390964    -0.22300
C3947       C  0.50327052  0.34550352  0.62069459    -0.02300
C3948       C  0.50464151  0.33653707  0.60588145    -0.16700
H3949       H  0.48918534  0.31924159  0.57845521     0.21300
H3950       H  0.45403609  0.35139853  0.61910530     0.19600
H3951       H  0.42770885  0.33657730  0.60043333     0.19600
H3952       H  0.51550915  0.33019487  0.60100305     0.15500
C3953       C  0.38779772  0.52382086  0.68309141     0.30900
C3954       C  0.37800951  0.51027496  0.68785930    -0.35400
C3955       C  0.37128123  0.50074122  0.67490426     0.16900
C3956       C  0.37399020  0.50415937  0.65832085     0.22700
C3957       C  0.38393562  0.51770060  0.65352947    -0.33600
C3958       C  0.39069400  0.52729570  0.66654450     0.16800
O3959       O  0.39393042  0.53520935  0.69317132    -0.25600
C3960       C  0.40099577  0.54611703  0.68302595     0.06600
C3961       C  0.39949672  0.54179066  0.66630107    -0.30500
O3962       O  0.36590539  0.49382682  0.64833204    -0.22300
C3963       C  0.35796688  0.48371891  0.65874459    -0.02300
C3964       C  0.36086518  0.48749828  0.67538021    -0.16700
H3965       H  0.37536081  0.50767728  0.70077800     0.21300
H3966       H  0.38588093  0.52081244  0.64060122     0.19600
H3967       H  0.40316215  0.54895495  0.65554526     0.19600
H3968       H  0.35581693  0.48146578  0.68627011     0.15500
C3969       C  0.34696842  0.38535437  0.59542936     0.30900
C3970       C  0.35745737  0.37855662  0.58311906    -0.35400
C3971       C  0.35748166  0.36107990  0.58161012     0.16900
C3972       C  0.34797919  0.35097363  0.59164711     0.22700
C3973       C  0.33723826  0.35777904  0.60367671    -0.33600
C3974       C  0.33710603  0.37521665  0.60507549     0.16800
O3975       O  0.34586301  0.40123033  0.59983875    -0.25600
C3976       C  0.33493809  0.40125693  0.61231410     0.06600
C3977       C  0.32906599  0.38541459  0.61601774    -0.30500
O3978       O  0.35129978  0.33498096  0.58944732    -0.22300
C3979       C  0.36292931  0.33473941  0.57765092    -0.02300
C3980       C  0.36712505  0.35064354  0.57219921    -0.16700
H3981       H  0.36550432  0.38629880  0.57566589     0.21300
H3982       H  0.32997276  0.34998515  0.61184479     0.19600
H3983       H  0.32070459  0.38184511  0.62591649     0.19600
H3984       H  0.37684047  0.35405265  0.56355856     0.15500
C3985       C  0.34641797  0.39593639  0.70309029     0.30900
C3986       C  0.35918124  0.38537952  0.70862226    -0.35400
C3987       C  0.36139065  0.38442866  0.72585306     0.16900
C3988       C  0.35157462  0.39314885  0.73696930     0.22700
C3989       C  0.33829974  0.40322719  0.73142374    -0.33600
C3990       C  0.33622808  0.40436660  0.71409364     0.16800
O3991       O  0.34422422  0.40073087  0.68762358    -0.25600
C3992       C  0.33237544  0.41228236  0.68855319     0.06600
C3993       C  0.32672521  0.41497892  0.70470671    -0.30500
O3994       O  0.35780401  0.39291816  0.75218965    -0.22300
C3995       C  0.37170258  0.38389349  0.75076591    -0.02300
C3996       C  0.37438411  0.37807917  0.73470767    -0.16700
H3997       H  0.36775319  0.37949487  0.70004094     0.21300
H3998       H  0.33107999  0.41079457  0.73993518     0.19600
H3999       H  0.31813446  0.42445117  0.70903625     0.19600
H4000       H  0.38533605  0.37183507  0.72988775     0.15500
C4001       C  0.25401876  0.62720811  0.58072084     0.30900
C4002       C  0.26031169  0.63980219  0.57041052    -0.35400
C4003       C  0.27754349  0.64263405  0.57142650     0.16900
C4004       C  0.28783139  0.63370035  0.58192426     0.22700
C4005       C  0.28150403  0.62135497  0.59245092    -0.33600
C4006       C  0.26431960  0.61847932  0.59137220     0.16800
O4007       O  0.23870071  0.62127186  0.58046472    -0.25600
C4008       C  0.23917338  0.60866236  0.59117963     0.06600
C4009       C  0.25479155  0.60639347  0.59837248    -0.30500
O4010       O  0.30372059  0.63682770  0.57939745    -0.22300
C4011       C  0.30368895  0.64797635  0.56719034    -0.02300
C4012       C  0.28773004  0.65220473  0.56183191    -0.16700
H4013       H  0.25248716  0.64627913  0.56155311     0.21300
H4014       H  0.28956706  0.61385343  0.60022936     0.19600
H4015       H  0.25880478  0.59656205  0.60665612     0.19600
H4016       H  0.28424578  0.65999660  0.55142564     0.15500
C4017       C  0.23871011  0.50832792  0.62263270     0.30900
C4018       C  0.24588599  0.49991129  0.63621013    -0.35400
C4019       C  0.25766560  0.48750803  0.63231146     0.16900
C4020       C  0.26214825  0.48376414  0.61616453     0.22700
C4021       C  0.25477590  0.49196837  0.60260960    -0.33600
C4022       C  0.24295820  0.50427868  0.60649871     0.16800
O4023       O  0.22830693  0.52109850  0.62340387    -0.25600
C4024       C  0.22572469  0.52514813  0.60754431     0.06600
C4025       C  0.23449668  0.51506884  0.59649413    -0.30500
O4026       O  0.27454268  0.47296129  0.61537273    -0.22300
C4027       C  0.27797725  0.46954241  0.63120103    -0.02300
C4028       C  0.26776406  0.47812741  0.64231047    -0.16700
H4029       H  0.24293013  0.50320114  0.64892329     0.21300
H4030       H  0.25845498  0.48936269  0.58992835     0.19600
H4031       H  0.23516019  0.51607705  0.58309298     0.19600
H4032       H  0.26847924  0.47831372  0.65575002     0.15500
C4033       C  0.18761799  0.58864016  0.51813184     0.30900
C4034       C  0.19282460  0.59897853  0.50516361    -0.35400
C4035       C  0.18024073  0.60499976  0.49467957     0.16900
C4036       C  0.16366356  0.60091448  0.49658752     0.22700
C4037       C  0.15847011  0.59040522  0.50948398    -0.33600
C4038       C  0.17104905  0.58457862  0.52016651     0.16800
O4039       O  0.19698839  0.58355207  0.53058339    -0.25600
C4040       C  0.18634752  0.57614567  0.54078069     0.06600
C4041       C  0.17002662  0.57629256  0.53490132    -0.30500
O4042       O  0.15386196  0.60914599  0.48625084    -0.22300
C4043       C  0.16432005  0.61868396  0.47775198    -0.02300
C4044       C  0.18087229  0.61658153  0.48242913    -0.16700
H4045       H  0.20565069  0.60288166  0.50395882     0.21300
H4046       H  0.14544564  0.58775334  0.51161501     0.19600
H4047       H  0.15887809  0.57228704  0.54126412     0.19600
H4048       H  0.19167712  0.62325924  0.47802329     0.15500
C4049       C  0.98979995  0.67561401  0.61053554     0.30900
C4050       C  0.98026875  0.68942268  0.60558212    -0.35400
C4051       C  0.96733768  0.68622819  0.59427611     0.16900
C4052       C  0.96395409  0.67050718  0.58823969     0.22700
C4053       C  0.97372633  0.65670320  0.59297343    -0.33600
C4054       C  0.98671063  0.65990339  0.60431178     0.16800
O4055       O  0.00167578  0.67567032  0.62187562    -0.25600
C4056       C  0.00644718  0.65982412  0.62290058     0.06600
C4057       C  0.99762887  0.64941063  0.61218928    -0.30500
O4058       O  0.95011820  0.67010701  0.57928072    -0.22300
C4059       C  0.94464781  0.68579798  0.57949794    -0.02300
C4060       C  0.95497537  0.69637156  0.58853850    -0.16700
H4061       H  0.98235391  0.70169533  0.61072639     0.21300
H4062       H  0.97095274  0.64424747  0.58868329     0.19600
H4063       H  0.99865884  0.63603856  0.61089961     0.19600
H4064       H  0.95291086  0.70934231  0.59159801     0.15500
C4065       C  0.10320046  0.59793031  0.63694825     0.30900
C4066       C  0.11037358  0.58716958  0.62510020    -0.35400
C4067       C  0.12789301  0.58670313  0.62464809     0.16900
C4068       C  0.13768594  0.59623617  0.63506375     0.22700
C4069       C  0.13052299  0.60670608  0.64712531    -0.33600
C4070       C  0.11303398  0.60708256  0.64766065     0.16800
O4071       O  0.08717780  0.60156861  0.63845898    -0.25600
C4072       C  0.08673062  0.61303314  0.65046903     0.06600
C4073       C  0.10245689  0.61679965  0.65673743    -0.30500
O4074       O  0.15374781  0.59476657  0.63175273    -0.22300
C4075       C  0.15431664  0.58398661  0.61916273    -0.02300
C4076       C  0.13859405  0.57850360  0.61426701    -0.16700
H4077       H  0.10283844  0.58012352  0.61643729     0.21300
H4078       H  0.13805701  0.61445707  0.65516028     0.19600
H4079       H  0.10571653  0.62627174  0.66575531     0.19600
H4080       H  0.13549085  0.57017831  0.60413032     0.15500
C4081       C  0.07900550  0.71547065  0.64772126     0.30900
C4082       C  0.07679555  0.73263506  0.64499548    -0.35400
C4083       C  0.08708192  0.73984746  0.63285185     0.16900
C4084       C  0.09887850  0.73082776  0.62415181     0.22700
C4085       C  0.10138623  0.71382634  0.62719125    -0.33600
C4086       C  0.09097207  0.70659017  0.63911046     0.16800
O4087       O  0.06896623  0.70569673  0.65630509    -0.25600
C4088       C  0.07457812  0.69039545  0.65307341     0.06600
C4089       C  0.08833883  0.69027134  0.64260186    -0.30500
O4090       O  0.10545128  0.73933452  0.61179285    -0.22300
C4091       C  0.09789404  0.75407914  0.61257287    -0.02300
C4092       C  0.08641443  0.75515084  0.62552260    -0.16700
H4093       H  0.06689137  0.73958480  0.65095968     0.21300
H4094       H  0.10995167  0.70646113  0.61982397     0.19600
H4095       H  0.09442491  0.67959559  0.63701586     0.19600
H4096       H  0.07776165  0.76517758  0.62815489     0.15500
C4097       C  0.81436658  0.60111559  0.99447622     0.30900
C4098       C  0.80046428  0.59584358  0.00354552    -0.35400
C4099       C  0.80382086  0.58651681  0.01786779     0.16900
C4100       C  0.81978021  0.58250458  0.02291414     0.22700
C4101       C  0.83371945  0.58744757  0.01357960    -0.33600
C4102       C  0.83036234  0.59694735  0.99928248     0.16800
O4103       O  0.81405923  0.61158667  0.98190864    -0.25600
C4104       C  0.83004160  0.61419205  0.97848474     0.06600
C4105       C  0.84080004  0.60528844  0.98879955    -0.30500
O4106       O  0.82008554  0.57560834  0.03781985    -0.22300
C4107       C  0.80411520  0.57514682  0.04229873    -0.02300
C4108       C  0.79345760  0.58164427  0.03028928    -0.16700
H4109       H  0.78794528  0.59964079  0.00023458     0.21300
H4110       H  0.84631211  0.58496467  0.01773418     0.19600
H4111       H  0.85426318  0.60579013  0.98923829     0.19600
H4112       H  0.78017753  0.58382390  0.03122575     0.15500
C4113       C  0.87709144  0.73407217  0.01094909     0.30900
C4114       C  0.88346237  0.72095720  0.00118453    -0.35400
C4115       C  0.87194617  0.71265819  0.99092146     0.16900
C4116       C  0.85533147  0.71706843  0.99019438     0.22700
C4117       C  0.84896432  0.73015709  0.99997760    -0.33600
C4118       C  0.86044255  0.73836075  0.01034095     0.16800
O4119       O  0.88546499  0.74295610  0.02199339    -0.25600
C4120       C  0.87404168  0.75306181  0.02861496     0.06600
C4121       C  0.85823749  0.75074070  0.02182340    -0.30500
O4122       O  0.84667079  0.70735682  0.98011534    -0.22300
C4123       C  0.85783592  0.69649217  0.97432663    -0.02300
C4124       C  0.87378412  0.69918669  0.98065772    -0.16700
H4125       H  0.89641774  0.71724442  0.00182355     0.21300
H4126       H  0.83589230  0.73347984  0.99978443     0.19600
H4127       H  0.84671985  0.75688792  0.02524648     0.19600
H4128       H  0.88500040  0.69205093  0.97829798     0.15500
C4129       C  0.74662786  0.62974819  0.90325255     0.30900
C4130       C  0.75332631  0.64162451  0.91425663    -0.35400
C4131       C  0.77026328  0.64544380  0.91208173     0.16900
C4132       C  0.77986276  0.63813360  0.89982587     0.22700
C4133       C  0.77302870  0.62674823  0.88849434    -0.33600
C4134       C  0.75620557  0.62281293  0.89077635     0.16800
O4135       O  0.73199642  0.62240135  0.90466565    -0.25600
C4136       C  0.73222431  0.61068461  0.89289831     0.06600
C4137       C  0.74691457  0.61049811  0.88379221    -0.30500
O4138       O  0.79587986  0.64108261  0.90178231    -0.22300
C4139       C  0.79665044  0.65053856  0.91535895    -0.02300
C4140       C  0.78105419  0.65389277  0.92217068    -0.16700
H4141       H  0.74621855  0.64651232  0.92460398     0.21300
H4142       H  0.78065964  0.62033563  0.87941973     0.19600
H4143       H  0.75076917  0.60159364  0.87442533     0.19600
H4144       H  0.77829880  0.65992404  0.93390223     0.15500
C4145       C  0.86259385  0.59633461  0.72225485     0.30900
C4146       C  0.86105450  0.59727147  0.70495426    -0.35400
C4147       C  0.84855689  0.58749277  0.69779666     0.16900
C4148       C  0.83814536  0.57742232  0.70694168     0.22700
C4149       C  0.83945658  0.57674963  0.72438475    -0.33600
C4150       C  0.85208901  0.58652837  0.73159065     0.16800
O4151       O  0.87483502  0.60273317  0.73109202    -0.25600
C4152       C  0.87218926  0.59709532  0.74636742     0.06600
C4153       C  0.85812160  0.58704111  0.74747868    -0.30500
O4154       O  0.82885329  0.56771730  0.69738237    -0.22300
C4155       C  0.83340309  0.57177538  0.68199117    -0.02300
C4156       C  0.84549355  0.58408394  0.68157502    -0.16700
H4157       H  0.86971232  0.60431043  0.69748193     0.21300
H4158       H  0.83189743  0.56841357  0.73170411     0.19600
H4159       H  0.85387355  0.57997047  0.75807879     0.19600
H4160       H  0.85211030  0.58879998  0.67087096     0.15500
C4161       C  0.97572619  0.62369622  0.74235074     0.30900
C4162       C  0.98500964  0.63683591  0.73558077    -0.35400
C4163       C  0.99654967  0.63248194  0.72316219     0.16900
C4164       C  0.99872568  0.61633033  0.71767992     0.22700
C4165       C  0.98960592  0.60317037  0.72460154    -0.33600
C4166       C  0.97815338  0.60750868  0.73708289     0.16800
O4167       O  0.96357632  0.62504169  0.75335827    -0.25600
C4168       C  0.95825087  0.60947948  0.75527324     0.06600
C4169       C  0.96692932  0.59805867  0.74550542    -0.30500
O4170       O  0.00939533  0.61522256  0.70522640    -0.22300
C4171       C  0.01429582  0.63085095  0.70280131    -0.02300
C4172       C  0.00674015  0.64210536  0.71364942    -0.16700
H4173       H  0.98307032  0.64961046  0.73941879     0.21300
H4174       H  0.99102677  0.59049031  0.72025886     0.19600
H4175       H  0.96474745  0.58483374  0.74423192     0.19600
H4176       H  0.00802631  0.65550329  0.71397337     0.15500
C4177       C  0.89998026  0.62489715  0.85491616     0.30900
C4178       C  0.89994003  0.62188151  0.87211671    -0.35400
C4179       C  0.89029400  0.63279952  0.88181252     0.16900
C4180       C  0.88149905  0.64595175  0.87507078     0.22700
C4181       C  0.88165621  0.64905294  0.85787204    -0.33600
C4182       C  0.89109021  0.63796771  0.84813930     0.16800
O4183       O  0.90701047  0.61541642  0.84348002    -0.25600
C4184       C  0.90253273  0.62242296  0.82915901     0.06600
C4185       C  0.89263087  0.63652990  0.83128141    -0.30500
O4186       O  0.87228504  0.65378482  0.88621660    -0.22300
C4187       C  0.87513765  0.64552392  0.90028364    -0.02300
C4188       C  0.88628712  0.63235742  0.89829252    -0.16700
H4189       H  0.90637622  0.61131619  0.87746866     0.21300
H4190       H  0.87432960  0.65895421  0.85238888     0.19600
H4191       H  0.88684716  0.64415332  0.82179747     0.19600
H4192       H  0.89014187  0.62325794  0.90743636     0.15500
C4193       C  0.89215427  0.52317128  0.79562788     0.30900
C4194       C  0.88079674  0.51076416  0.79107635    -0.35400
C4195       C  0.87467317  0.50093995  0.80404552     0.16900
C4196       C  0.87953368  0.50294080  0.82039941     0.22700
C4197       C  0.89111509  0.51525058  0.82493457    -0.33600
C4198       C  0.89713223  0.52524372  0.81194622     0.16800
O4199       O  0.89752693  0.53512334  0.78586151    -0.25600
C4200       C  0.90611421  0.54502552  0.79596593     0.06600
C4201       C  0.90648496  0.53939559  0.81233100    -0.30500
O4202       O  0.87147250  0.49288878  0.83058691    -0.22300
C4203       C  0.86129601  0.48443308  0.82057146    -0.02300
C4204       C  0.86277652  0.48896220  0.80395835    -0.16700
H4205       H  0.87635788  0.50945083  0.77842891     0.21300
H4206       H  0.89458530  0.51739711  0.83776441     0.19600
H4207       H  0.91138646  0.54572432  0.82317292     0.19600
H4208       H  0.85583614  0.48430349  0.79338223     0.15500
C4209       C  0.77481997  0.14302679  0.05398459     0.30900
C4210       C  0.76152952  0.13271864  0.04962234    -0.35400
C4211       C  0.75207359  0.12658439  0.06279660     0.16900
C4212       C  0.75518812  0.13040121  0.07925627     0.22700
C4213       C  0.76847777  0.14093877  0.08365121    -0.33600
C4214       C  0.77815441  0.14697167  0.07038217     0.16800
O4215       O  0.78631390  0.14841280  0.04370711    -0.25600
C4216       C  0.79726334  0.15596327  0.05352541     0.06600
C4217       C  0.79280537  0.15557689  0.07027250    -0.30500
O4218       O  0.74527365  0.12221023  0.08952207    -0.22300
C4219       C  0.73587370  0.11305841  0.07934392    -0.02300
C4220       C  0.73958764  0.11535396  0.06266630    -0.16700
H4221       H  0.75924219  0.12902956  0.03687044     0.21300
H4222       H  0.77153588  0.14360015  0.09649309     0.19600
H4223       H  0.79999399  0.15975958  0.08087842     0.19600
H4224       H  0.73420346  0.10915731  0.05197139     0.15500
C4225       C  0.74108677  0.01525231  0.12184708     0.30900
C4226       C  0.74891581  0.00680332  0.13509665    -0.35400
C4227       C  0.76002732  0.99390967  0.13067080     0.16900
C4228       C  0.76334610  0.98981213  0.11433365     0.22700
C4229       C  0.75538914  0.99809783  0.10114760    -0.33600
C4230       C  0.74415112  0.01078154  0.10556130     0.16800
O4231       O  0.73075675  0.02810318  0.12301256    -0.25600
C4232       C  0.72696824  0.03170062  0.10725322     0.06600
C4233       C  0.73493037  0.02128484  0.09590828    -0.30500
O4234       O  0.77492025  0.97817025  0.11291484    -0.22300
C4235       C  0.77902149  0.97451274  0.12854223    -0.02300
C4236       C  0.77006385  0.98386509  0.14014991    -0.16700
H4237       H  0.74672495  0.01022784  0.14793040     0.21300
H4238       H  0.75801085  0.99505911  0.08829877     0.19600
H4239       H  0.73446006  0.02179189  0.08246715     0.19600
H4240       H  0.77136710  0.98384849  0.15354700     0.15500
C4241       C  0.66869426  0.08998529  0.01960632     0.30900
C4242       C  0.67114869  0.09257418  0.00246733    -0.35400
C4243       C  0.66002832  0.10372672  0.99470158     0.16900
C4244       C  0.64734382  0.11164228  0.00323125     0.22700
C4245       C  0.64473063  0.10883580  0.02018228    -0.33600
C4246       C  0.65587304  0.09788162  0.02792875     0.16800
O4247       O  0.67871990  0.08176703  0.02982383    -0.25600
C4248       C  0.67216373  0.08451673  0.04481367     0.06600
C4249       C  0.65792837  0.09439354  0.04430527    -0.30500
O4250       O  0.63974674  0.12308418  0.99428270    -0.22300
C4251       C  0.64750549  0.12252312  0.97973250    -0.02300
C4252       C  0.66018088  0.11061109  0.97917920    -0.16700
H4253       H  0.68157040  0.08709281  0.99589623     0.21300
H4254       H  0.63530770  0.11556652  0.02709606     0.19600
H4255       H  0.65082918  0.09929941  0.05465806     0.19600
H4256       H  0.66912676  0.10843945  0.96934825     0.15500
C4257       C  0.47499873  0.13917091  0.10825555     0.30900
C4258       C  0.45769987  0.13744778  0.10657345    -0.35400
C4259       C  0.44987191  0.14833534  0.09539067     0.16900
C4260       C  0.45844330  0.16003446  0.08627778     0.22700
C4261       C  0.47583318  0.16151800  0.08769532    -0.33600
C4262       C  0.48366729  0.15071888  0.09903250     0.16800
O4263       O  0.48432205  0.13201670  0.11974568    -0.25600
C4264       C  0.49919623  0.13899315  0.11786654     0.06600
C4265       C  0.49957332  0.15058475  0.10502932    -0.30500
O4266       O  0.44838059  0.17011352  0.07796722    -0.22300
C4267       C  0.43319370  0.16474174  0.08180872    -0.02300
C4268       C  0.43340957  0.15120555  0.09255369    -0.16700
H4269       H  0.45068532  0.12896846  0.11426474     0.21300
H4270       H  0.48263262  0.17111185  0.08121637     0.19600
H4271       H  0.50963465  0.15885781  0.10171889     0.19600
H4272       H  0.42291630  0.14509046  0.09831238     0.15500
C4273       C  0.47572842  0.09880536  0.24039560     0.30900
C4274       C  0.48627731  0.09319591  0.22756533    -0.35400
C4275       C  0.49558580  0.10548885  0.21935254     0.16900
C4276       C  0.49465353  0.12213369  0.22354383     0.22700
C4277       C  0.48420559  0.12771003  0.23640699    -0.33600
C4278       C  0.47482166  0.11546702  0.24450897     0.16800
O4279       O  0.46506996  0.08968914  0.24895482    -0.25600
C4280       C  0.45720540  0.10069061  0.25862972     0.06600
C4281       C  0.46280309  0.11689498  0.25637573    -0.30500
O4282       O  0.50355947  0.13163040  0.21358319    -0.22300
C4283       C  0.51034961  0.12097261  0.20282828    -0.02300
C4284       C  0.50585908  0.10451466  0.20585445    -0.16700
H4285       H  0.48676695  0.08024581  0.22386694     0.21300
H4286       H  0.48302798  0.14077271  0.23949213     0.19600
H4287       H  0.45818117  0.12817804  0.26214920     0.19600
H4288       H  0.50907242  0.09355111  0.19867820     0.15500
C4289       C  0.63579295  0.09896108  0.13348415     0.30900
C4290       C  0.62752188  0.11059375  0.14363124    -0.35400
C4291       C  0.61003424  0.11000878  0.14335348     0.16900
C4292       C  0.60124823  0.09889077  0.13362967     0.22700
C4293       C  0.60951899  0.08713961  0.12363938    -0.33600
C4294       C  0.62700002  0.08758661  0.12407287     0.16800
O4295       O  0.65204100  0.09795290  0.13101004    -0.25600
C4296       C  0.65367650  0.08560326  0.12004560     0.06600
C4297       C  0.63851157  0.07865260  0.11537757    -0.30500
O4298       O  0.58495688  0.10104841  0.13471466    -0.22300
C4299       C  0.58328677  0.11358025  0.14544806    -0.02300
C4300       C  0.59846857  0.11962580  0.15122992    -0.16700
H4301       H  0.63423277  0.11968268  0.15096169     0.21300
H4302       H  0.60280083  0.07845671  0.11583792     0.19600
H4303       H  0.63625120  0.06908479  0.10615517     0.19600
H4304       H  0.60064629  0.12991545  0.15966191     0.15500
C4305       C  0.56148354  0.23669786  0.12723975     0.30900
C4306       C  0.54743462  0.22815352  0.13294052    -0.35400
C4307       C  0.55055138  0.21406666  0.14268154     0.16900
C4308       C  0.56644023  0.20875661  0.14664657     0.22700
C4309       C  0.58054527  0.21759927  0.14128611    -0.33600
C4310       C  0.57741848  0.23168337  0.13139614     0.16800
O4311       O  0.56132247  0.24901635  0.11650421    -0.25600
C4312       C  0.57733080  0.25213465  0.11374921     0.06600
C4313       C  0.58799604  0.24181185  0.12276826    -0.30500
O4314       O  0.56649301  0.19394986  0.15373684    -0.22300
C4315       C  0.55044972  0.18979325  0.15436388    -0.02300
C4316       C  0.53996783  0.20194941  0.14783879    -0.16700
H4317       H  0.53496135  0.23164782  0.12915840     0.21300
H4318       H  0.59306442  0.21319952  0.14374626     0.19600
H4319       H  0.60145648  0.24120879  0.12226886     0.19600
H4320       H  0.52669058  0.20117897  0.14560528     0.15500
loop_ 
_geom_bond_atom_site_label_1 
_geom_bond_atom_site_label_2 
_geom_bond_distance 
_geom_bond_site_symmetry_2 
_ccdc_geom_bond_type 
O1            C4   1.264       .  A
O1           Cd6   2.485       .  S
C2           O11   1.263       .  A
C2            O7   1.266       .  A
C2         C4299   1.473       .  S
O3            C9   1.266       .  A
O3           Cd6   2.473       .  S
C4           O12   1.263       .  A
C4         C4264   1.472       .  S
C5           O10   1.265       .  A
C5            O8   1.264       .  A
C5         C4283   1.478       .  S
Cd6          O13   2.471       .  S
Cd6          O12   2.479       .  S
Cd6          O11   2.459       .  S
Cd6           O7   2.503       .  S
Cd6          O10   2.499       .  S
Cd6           O8   2.496       .  S
C9           O13   1.264       .  A
C9         C4315   1.471       .  S
O14          C17   1.268       .  A
O14         Cd19   2.540       .  S
C15          O24   1.268       .  A
C15          O20   1.269       .  A
C15        C4296   1.473       .  S
O16          C22   1.269       .  A
O16         Cd19   2.520       .  S
C17          O25   1.259       .  A
C17        C4219   1.470       .  S
C18          O23   1.266       .  A
C18          O21   1.264       .  A
C18        C4232   1.480       .  S
Cd19         O26   2.438       .  S
Cd19         O25   2.399       .  S
Cd19         O24   2.451       .  S
Cd19         O20   2.484       .  S
Cd19         O23   2.493       .  S
Cd19         O21   2.504       .  S
C22          O26   1.263       .  A
C22        C4248   1.474       .  S
O27          C30   1.267       .  A
O27         Cd32   2.503       .  S
C28          O37   1.264       .  A
C28          O33   1.264       .  A
C28        C4152   1.470       .  S
O29          C35   1.264       .  A
O29         Cd32   2.482       .  S
C30          O38   1.263       .  A
C30        C4184   1.473       .  S
C31          O36   1.263       .  A
C31          O34   1.266       .  A
C31        C4200   1.468       .  S
Cd32         O39   2.501       .  S
Cd32         O38   2.459       .  S
Cd32         O37   2.484       .  S
Cd32         O33   2.469       .  S
Cd32         O36   2.450       .  S
Cd32         O34   2.483       .  S
C35          O39   1.264       .  A
C35        C4168   1.476       .  S
O40          C43   1.268       .  A
O40         Cd45   2.490       .  S
C41          O50   1.266       .  A
C41          O46   1.259       .  A
C41        C4104   1.473       .  S
O42          C48   1.264       .  A
O42         Cd45   2.503       .  S
C43          O51   1.266       .  A
C43        C4187   1.475       .  S
C44          O49   1.264       .  A
C44          O47   1.269       .  A
C44        C4139   1.471       .  S
Cd45         O52   2.505       .  S
Cd45         O51   2.469       .  S
Cd45         O50   2.531       .  S
Cd45         O46   2.454       .  S
Cd45         O49   2.447       .  S
Cd45         O47   2.500       .  S
C48          O52   1.264       .  A
C48        C4123   1.480       .  S
O53          C56   1.267       .  A
O53         Cd58   2.529       .  S
C54          O63   1.268       .  A
C54          O59   1.269       .  A
C54        C4072   1.478       .  S
O55          C61   1.269       .  A
O55         Cd58   2.521       .  S
C56          O64   1.260       .  A
C56        C4056   1.474       .  S
C57          O62   1.266       .  A
C57          O60   1.264       .  A
C57        C4171   1.478       .  S
Cd58         O65   2.436       .  S
Cd58         O64   2.450       .  S
Cd58         O63   2.469       .  S
Cd58         O59   2.494       .  S
Cd58         O62   2.499       .  S
Cd58         O60   2.494       .  S
C61          O65   1.263       .  A
C61        C4088   1.474       .  S
O66          C69   1.265       .  A
O66         Cd71   2.480       .  S
C67          O76   1.264       .  A
C67          O72   1.267       .  A
C67        C4075   1.477       .  S
O68          C74   1.263       .  A
O68         Cd71   2.450       .  S
C69          O77   1.264       .  A
C69        C4008   1.473       .  S
C70          O75   1.265       .  A
C70          O73   1.263       .  A
C70        C4024   1.474       .  S
Cd71         O78   2.477       .  S
Cd71         O77   2.484       .  S
Cd71         O76   2.480       .  S
Cd71         O72   2.501       .  S
Cd71         O75   2.486       .  S
Cd71         O73   2.489       .  S
C74          O78   1.265       .  A
C74        C4040   1.466       .  S
O79          C82   1.270       .  A
O79         Cd84   2.515       .  S
C80          O89   1.267       .  A
C80          O85   1.260       .  A
C80        C3963   1.474       .  S
O81          C87   1.266       .  A
O81         Cd84   2.507       .  S
C82          O90   1.266       .  A
C82        C3976   1.481       .  S
C83          O88   1.263       .  A
C83          O86   1.270       .  A
C83        C3992   1.468       .  S
Cd84         O91   2.473       .  S
Cd84         O90   2.458       .  S
Cd84         O89   2.536       .  S
Cd84         O85   2.441       .  S
Cd84         O88   2.415       .  S
Cd84         O86   2.511       .  S
C87          O91   1.263       .  A
C87        C4027   1.474       .  S
O92          C95   1.269       .  A
O92         Cd97   2.493       .  S
C93         O102   1.267       .  A
C93          O98   1.261       .  A
C93        C3915   1.474       .  S
O94         C100   1.268       .  A
O94         Cd97   2.538       .  S
C95         O103   1.268       .  A
C95        C3979   1.482       .  S
C96         O101   1.263       .  A
C96          O99   1.271       .  A
C96        C3944   1.475       .  S
Cd97        O104   2.481       .  S
Cd97        O103   2.491       .  S
Cd97        O102   2.526       .  S
Cd97         O98   2.442       .  S
Cd97        O101   2.417       .  S
Cd97         O99   2.530       .  S
C100        O104   1.264       .  A
C100       C3928   1.486       .  S
O105        C108   1.271       .  A
O105       Cd110   2.490       .  S
C106        O115   1.259       .  A
C106        O111   1.267       .  A
C106       C3864   1.477       .  S
O107        C113   1.266       .  A
O107       Cd110   2.521       .  S
C108        O116   1.267       .  A
C108       C3880   1.475       .  S
C109        O114   1.271       .  A
C109        O112   1.262       .  A
C109       C3896   1.475       .  S
Cd110       O117   2.512       .  S
Cd110       O116   2.461       .  S
Cd110       O115   2.443       .  S
Cd110       O111   2.541       .  S
Cd110       O114   2.528       .  S
Cd110       O112   2.427       .  S
C113        O117   1.264       .  A
C113       C3931   1.485       .  S
O118        C121   1.270       .  A
O118       Cd123   2.483       .  S
C119        O128   1.266       .  A
C119        O124   1.259       .  A
C119       C3832   1.472       .  S
O120        C126   1.264       .  A
O120       Cd123   2.519       .  S
C121        O129   1.268       .  A
C121       C3883   1.475       .  S
C122        O127   1.263       .  A
C122        O125   1.268       .  A
C122       C3851   1.472       .  S
Cd123       O130   2.486       .  S
Cd123       O129   2.465       .  S
Cd123       O128   2.535       .  S
Cd123       O124   2.441       .  S
Cd123       O127   2.447       .  S
Cd123       O125   2.506       .  S
C126        O130   1.263       .  A
C126       C4280   1.478       .  S
O131        C134   1.266       .  A
O131       Cd136   2.494       .  S
C132        O141   1.265       .  A
C132        O137   1.267       .  A
C132       C3800   1.476       .  S
O133        C139   1.265       .  A
O133       Cd136   2.451       .  S
C134        O142   1.261       .  A
C134       C3787   1.469       .  S
C135        O140   1.263       .  A
C135        O138   1.265       .  A
C135       C4120   1.479       .  S
Cd136       O143   2.483       .  S
Cd136       O142   2.454       .  S
Cd136       O141   2.463       .  S
Cd136       O137   2.504       .  S
Cd136       O140   2.494       .  S
Cd136       O138   2.513       .  S
C139        O143   1.266       .  A
C139       C3819   1.470       .  S
O144        C147   1.261       .  A
O144       Cd149   2.444       .  S
C145        O154   1.267       .  A
C145        O150   1.269       .  A
C145       C3803   1.476       .  S
O146        C152   1.263       .  A
O146       Cd149   2.414       .  S
C147        O155   1.268       .  A
C147       C3752   1.476       .  S
C148        O153   1.267       .  A
C148        O151   1.264       .  A
C148       C4235   1.481       .  S
Cd149       O156   2.508       .  S
Cd149       O155   2.534       .  S
Cd149       O154   2.464       .  S
Cd149       O150   2.484       .  S
Cd149       O153   2.522       .  S
Cd149       O151   2.482       .  S
C152        O156   1.272       .  A
C152       C3768   1.471       .  S
O157        C160   1.269       .  A
O157       Cd162   2.481       .  S
C158        O167   1.261       .  A
C158        O163   1.267       .  A
C158       C3688   1.474       .  S
O159        C165   1.267       .  A
O159       Cd162   2.511       .  S
C160        O168   1.267       .  A
C160       C3723   1.475       .  S
C161        O166   1.269       .  A
C161        O164   1.263       .  A
C161       C3736   1.468       .  S
Cd162       O169   2.466       .  S
Cd162       O168   2.464       .  S
Cd162       O167   2.447       .  S
Cd162       O163   2.530       .  S
Cd162       O166   2.509       .  S
Cd162       O164   2.410       .  S
C165        O169   1.264       .  A
C165       C3704   1.476       .  S
O170        C173   1.261       .  A
O170       Cd175   2.470       .  S
C171        O180   1.265       .  A
C171        O176   1.265       .  A
C171       C3720   1.474       .  S
O172        C178   1.267       .  A
O172       Cd175   2.490       .  S
C173        O181   1.265       .  A
C173       C3640   1.471       .  S
C174        O179   1.266       .  A
C174        O177   1.263       .  A
C174       C3656   1.483       .  S
Cd175       O182   2.452       .  S
Cd175       O181   2.494       .  S
Cd175       O180   2.470       .  S
Cd175       O176   2.496       .  S
Cd175       O179   2.529       .  S
Cd175       O177   2.499       .  S
C178        O182   1.266       .  A
C178       C3675   1.473       .  S
O183        C186   1.266       .  A
O183       Cd188   2.484       .  S
C184        O193   1.265       .  A
C184        O189   1.263       .  A
C184       C3576   1.470       .  S
O185        C191   1.266       .  A
O185       Cd188   2.503       .  S
C186        O194   1.265       .  A
C186       C3608   1.474       .  S
C187        O192   1.266       .  A
C187        O190   1.263       .  A
C187       C3627   1.470       .  S
Cd188       O195   2.496       .  S
Cd188       O194   2.478       .  S
Cd188       O193   2.470       .  S
Cd188       O189   2.479       .  S
Cd188       O192   2.496       .  S
Cd188       O190   2.453       .  S
C191        O195   1.263       .  A
C191       C3592   1.479       .  S
O196        C199   1.262       .  A
O196       Cd201   2.490       .  S
C197        O206   1.263       .  A
C197        O202   1.267       .  A
C197       C3611   1.476       .  S
O198        C204   1.265       .  A
O198       Cd201   2.472       .  S
C199        O207   1.264       .  A
C199       C3531   1.474       .  S
C200        O205   1.265       .  A
C200        O203   1.263       .  A
C200       C3544   1.482       .  S
Cd201       O208   2.462       .  S
Cd201       O207   2.492       .  S
Cd201       O206   2.472       .  S
Cd201       O202   2.513       .  S
Cd201       O205   2.523       .  S
Cd201       O203   2.491       .  S
C204        O208   1.267       .  A
C204       C3560   1.471       .  S
O209        C212   1.268       .  A
O209       Cd214   2.491       .  S
C210        O219   1.258       .  A
C210        O215   1.265       .  A
C210       C3464   1.469       .  S
O211        C217   1.267       .  A
O211       Cd214   2.523       .  S
C212        O220   1.267       .  A
C212       C3499   1.476       .  S
C213        O218   1.271       .  A
C213        O216   1.263       .  A
C213       C3515   1.476       .  S
Cd214       O221   2.497       .  S
Cd214       O220   2.466       .  S
Cd214       O219   2.445       .  S
Cd214       O215   2.524       .  S
Cd214       O218   2.527       .  S
Cd214       O216   2.432       .  S
C217        O221   1.263       .  A
C217       C3480   1.483       .  S
O222        C225   1.267       .  A
O222       Cd227   2.468       .  S
C223        O232   1.260       .  A
C223        O228   1.264       .  A
C223       C3432   1.470       .  S
O224        C230   1.267       .  A
O224       Cd227   2.518       .  S
C225        O233   1.266       .  A
C225       C3496   1.471       .  S
C226        O231   1.271       .  A
C226        O229   1.264       .  A
C226       C3451   1.475       .  S
Cd227       O234   2.474       .  S
Cd227       O233   2.466       .  S
Cd227       O232   2.447       .  S
Cd227       O228   2.519       .  S
Cd227       O231   2.514       .  S
Cd227       O229   2.430       .  S
C230        O234   1.262       .  A
C230       C3595   1.478       .  S
O235        C238   1.262       .  A
O235       Cd240   2.440       .  S
C236        O245   1.268       .  A
C236        O241   1.270       .  A
C236       C3400   1.481       .  S
O237        C243   1.263       .  A
O237       Cd240   2.422       .  S
C238        O246   1.269       .  A
C238       C3384   1.471       .  S
C239        O244   1.269       .  A
C239        O242   1.265       .  A
C239       C3483   1.483       .  S
Cd240       O247   2.519       .  S
Cd240       O246   2.510       .  S
Cd240       O245   2.469       .  S
Cd240       O241   2.504       .  S
Cd240       O244   2.522       .  S
Cd240       O242   2.483       .  S
C243        O247   1.272       .  A
C243       C3419   1.471       .  S
O248        C251   1.269       .  A
O248       Cd253   2.508       .  S
C249        O258   1.261       .  A
C249        O254   1.265       .  A
C249       C3336   1.474       .  S
O250        C256   1.264       .  A
O250       Cd253   2.513       .  S
C251        O259   1.265       .  A
C251       C3403   1.478       .  S
C252        O257   1.266       .  A
C252        O255   1.263       .  A
C252       C3368   1.473       .  S
Cd253       O260   2.515       .  S
Cd253       O259   2.464       .  S
Cd253       O258   2.486       .  S
Cd253       O254   2.500       .  S
Cd253       O257   2.482       .  S
Cd253       O255   2.481       .  S
C256        O260   1.263       .  A
C256       C3352   1.484       .  S
O261        C264   1.265       .  A
O261       Cd266   2.521       .  S
C262        O271   1.267       .  A
C262        O267   1.269       .  A
C262       C3304   1.475       .  S
O263        C269   1.269       .  A
O263       Cd266   2.503       .  S
C264        O272   1.260       .  A
C264       C3291   1.473       .  S
C265        O270   1.266       .  A
C265        O268   1.262       .  A
C265       C3355   1.484       .  S
Cd266       O273   2.442       .  S
Cd266       O272   2.453       .  S
Cd266       O271   2.467       .  S
Cd266       O267   2.486       .  S
Cd266       O270   2.537       .  S
Cd266       O268   2.494       .  S
C269        O273   1.263       .  A
C269       C3320   1.472       .  S
O274        C277   1.260       .  A
O274       Cd279   2.464       .  S
C275        O284   1.265       .  A
C275        O280   1.267       .  A
C275       C3307   1.474       .  S
O276        C282   1.264       .  A
O276       Cd279   2.474       .  S
C277        O285   1.264       .  A
C277       C3256   1.470       .  S
C278        O283   1.266       .  A
C278        O281   1.263       .  A
C278       C3707   1.482       .  S
Cd279       O286   2.492       .  S
Cd279       O285   2.504       .  S
Cd279       O284   2.468       .  S
Cd279       O280   2.489       .  S
Cd279       O283   2.519       .  S
Cd279       O281   2.502       .  S
C282        O286   1.267       .  A
C282       C3275   1.476       .  S
O287        C290   1.269       .  A
O287       Cd292   2.506       .  S
C288        O297   1.260       .  A
C288        O293   1.266       .  A
C288       C3211   1.472       .  S
O289        C295   1.265       .  A
O289       Cd292   2.520       .  S
C290        O298   1.267       .  A
C290       C3224   1.477       .  S
C291        O296   1.270       .  A
C291        O294   1.262       .  A
C291       C3240   1.474       .  S
Cd292       O299   2.501       .  S
Cd292       O298   2.451       .  S
Cd292       O297   2.461       .  S
Cd292       O293   2.520       .  S
Cd292       O296   2.530       .  S
Cd292       O294   2.436       .  S
C295        O299   1.263       .  A
C295       C3547   1.482       .  S
O300        C303   1.267       .  A
O300       Cd305   2.510       .  S
C301        O310   1.263       .  A
C301        O306   1.266       .  A
C301       C3179   1.474       .  S
O302        C308   1.265       .  A
O302       Cd305   2.506       .  S
C303        O311   1.264       .  A
C303       C3227   1.479       .  S
C304        O309   1.263       .  A
C304        O307   1.265       .  A
C304       C3192   1.470       .  S
Cd305       O312   2.505       .  S
Cd305       O311   2.478       .  S
Cd305       O310   2.479       .  S
Cd305       O306   2.495       .  S
Cd305       O309   2.450       .  S
Cd305       O307   2.504       .  S
C308        O312   1.264       .  A
C308       C3659   1.481       .  S
O313        C316   1.270       .  A
O313       Cd318   2.503       .  S
C314        O323   1.268       .  A
C314        O319   1.260       .  A
C314       C3131   1.479       .  S
O315        C321   1.262       .  A
O315       Cd318   2.436       .  S
C316        O324   1.267       .  A
C316       C3160   1.480       .  S
C317        O322   1.264       .  A
C317        O320   1.265       .  A
C317       C3147   1.484       .  S
Cd318       O325   2.502       .  S
Cd318       O324   2.468       .  S
Cd318       O323   2.550       .  S
Cd318       O319   2.446       .  S
Cd318       O322   2.518       .  S
Cd318       O320   2.513       .  S
C321        O325   1.269       .  A
C321       C3176   1.469       .  S
O326        C329   1.268       .  A
O326       Cd331   2.486       .  S
C327        O336   1.259       .  A
C327        O332   1.266       .  A
C327       C3096   1.475       .  S
O328        C334   1.269       .  A
O328       Cd331   2.514       .  S
C329        O337   1.268       .  A
C329       C3163   1.478       .  S
C330        O335   1.266       .  A
C330        O333   1.263       .  A
C330       C3112   1.482       .  S
Cd331       O338   2.429       .  S
Cd331       O337   2.482       .  S
Cd331       O336   2.464       .  S
Cd331       O332   2.531       .  S
Cd331       O335   2.527       .  S
Cd331       O333   2.491       .  S
C334        O338   1.263       .  A
C334       C3643   1.472       .  S
O339        C342   1.267       .  A
O339       Cd344   2.533       .  S
C340        O349   1.267       .  A
C340        O345   1.270       .  A
C340       C3064   1.481       .  S
O341        C347   1.266       .  A
O341       Cd344   2.528       .  S
C342        O350   1.259       .  A
C342       C3563   1.472       .  S
C343        O348   1.270       .  A
C343        O346   1.263       .  A
C343       C3080   1.475       .  S
Cd344       O351   2.487       .  S
Cd344       O350   2.445       .  S
Cd344       O349   2.479       .  S
Cd344       O345   2.504       .  S
Cd344       O348   2.527       .  S
Cd344       O346   2.436       .  S
C347        O351   1.263       .  A
C347       C3048   1.482       .  S
O352        C355   1.269       .  A
O352       Cd357   2.506       .  S
C353        O362   1.259       .  A
C353        O358   1.266       .  A
C353       C3003   1.472       .  S
O354        C360   1.269       .  A
O354       Cd357   2.516       .  S
C355        O363   1.266       .  A
C355       C3067   1.479       .  S
C356        O361   1.265       .  A
C356        O359   1.263       .  A
C356       C3016   1.475       .  S
Cd357       O364   2.431       .  S
Cd357       O363   2.474       .  S
Cd357       O362   2.447       .  S
Cd357       O358   2.533       .  S
Cd357       O361   2.512       .  S
Cd357       O359   2.469       .  S
C360        O364   1.264       .  A
C360       C3032   1.472       .  S
O365        C368   1.270       .  A
O365       Cd370   2.477       .  S
C366        O375   1.262       .  A
C366        O371   1.268       .  A
C366       C3624   1.471       .  S
O367        C373   1.272       .  A
O367       Cd370   2.523       .  S
C368        O376   1.268       .  A
C368       C2968   1.473       .  S
C369        O374   1.268       .  A
C369        O372   1.265       .  A
C369       C3051   1.481       .  S
Cd370       O377   2.412       .  S
Cd370       O376   2.443       .  S
Cd370       O375   2.419       .  S
Cd370       O371   2.518       .  S
Cd370       O374   2.519       .  S
Cd370       O372   2.472       .  S
C373        O377   1.263       .  A
C373       C2984   1.473       .  S
O378        C381   1.268       .  A
O378       Cd383   2.500       .  S
C379        O388   1.264       .  A
C379        O384   1.262       .  A
C379       C2936   1.473       .  S
O380        C386   1.263       .  A
O380       Cd383   2.476       .  S
C381        O389   1.265       .  A
C381       C2971   1.474       .  S
C382        O387   1.265       .  A
C382        O385   1.265       .  A
C382       C3115   1.481       .  S
Cd383       O390   2.493       .  S
Cd383       O389   2.460       .  S
Cd383       O388   2.489       .  S
Cd383       O384   2.490       .  S
Cd383       O387   2.509       .  S
Cd383       O385   2.499       .  S
C386        O390   1.267       .  A
C386       C2955   1.474       .  S
O391        C394   1.267       .  A
O391       Cd396   2.515       .  S
C392        O401   1.265       .  A
C392        O397   1.264       .  A
C392       C2904   1.476       .  S
O393        C399   1.264       .  A
O393       Cd396   2.467       .  S
C394        O402   1.262       .  A
C394       C2920   1.477       .  S
C395        O400   1.265       .  A
C395        O398   1.264       .  A
C395       C3019   1.477       .  S
Cd396       O403   2.486       .  S
Cd396       O402   2.476       .  S
Cd396       O401   2.492       .  S
Cd396       O397   2.483       .  S
Cd396       O400   2.504       .  S
Cd396       O398   2.486       .  S
C399        O403   1.264       .  A
C399       C3387   1.471       .  S
O404        C407   1.268       .  A
O404       Cd409   2.490       .  S
C405        O414   1.263       .  A
C405        O410   1.262       .  A
C405       C2875   1.471       .  S
O406        C412   1.262       .  A
O406       Cd409   2.462       .  S
C407        O415   1.265       .  A
C407       C2923   1.475       .  S
C408        O413   1.266       .  A
C408        O411   1.264       .  A
C408       C2891   1.477       .  S
Cd409       O416   2.496       .  S
Cd409       O415   2.464       .  S
Cd409       O414   2.487       .  S
Cd409       O410   2.484       .  S
Cd409       O413   2.499       .  S
Cd409       O411   2.487       .  S
C412        O416   1.267       .  A
C412       C3467   1.471       .  S
O417        C420   1.268       .  A
O417       Cd422   2.479       .  S
C418        O427   1.264       .  A
C418        O423   1.261       .  A
C418       C3323   1.471       .  S
O419        C425   1.263       .  A
O419       Cd422   2.456       .  S
C420        O428   1.266       .  A
C420       C2840   1.477       .  S
C421        O426   1.264       .  A
C421        O424   1.264       .  A
C421       C2827   1.479       .  S
Cd422       O429   2.486       .  S
Cd422       O428   2.485       .  S
Cd422       O427   2.513       .  S
Cd422       O423   2.449       .  S
Cd422       O426   2.507       .  S
Cd422       O424   2.496       .  S
C425        O429   1.266       .  A
C425       C2856   1.470       .  S
O430        C433   1.270       .  A
O430       Cd435   2.515       .  S
C431        O440   1.267       .  A
C431        O436   1.260       .  A
C431       C2795   1.477       .  S
O432        C438   1.270       .  A
O432       Cd435   2.520       .  S
C433        O441   1.266       .  A
C433       C2843   1.478       .  S
C434        O439   1.265       .  A
C434        O437   1.265       .  A
C434       C3144   1.485       .  S
Cd435       O442   2.427       .  S
Cd435       O441   2.455       .  S
Cd435       O440   2.541       .  S
Cd435       O436   2.451       .  S
Cd435       O439   2.521       .  S
Cd435       O437   2.509       .  S
C438        O442   1.262       .  A
C438       C2808   1.471       .  S
O443        C446   1.270       .  A
O443       Cd448   2.491       .  S
C444        O453   1.261       .  A
C444        O449   1.268       .  A
C444       C3272   1.476       .  S
O445        C451   1.271       .  A
O445       Cd448   2.507       .  S
C446        O454   1.266       .  A
C446       C2763   1.475       .  S
C447        O452   1.268       .  A
C447        O450   1.264       .  A
C447       C2824   1.479       .  S
Cd448       O455   2.418       .  S
Cd448       O454   2.456       .  S
Cd448       O453   2.444       .  S
Cd448       O449   2.536       .  S
Cd448       O452   2.505       .  S
Cd448       O450   2.485       .  S
C451        O455   1.265       .  A
C451       C2776   1.472       .  S
O456        C459   1.268       .  A
O456       Cd461   2.509       .  S
C457        O466   1.264       .  A
C457        O462   1.263       .  A
C457       C2731   1.472       .  S
O458        C464   1.265       .  A
O458       Cd461   2.466       .  S
C459        O467   1.264       .  A
C459       C2760   1.476       .  S
C460        O465   1.265       .  A
C460        O463   1.263       .  A
C460       C2888   1.476       .  S
Cd461       O468   2.456       .  S
Cd461       O467   2.460       .  S
Cd461       O466   2.476       .  S
Cd461       O462   2.487       .  S
Cd461       O465   2.500       .  S
Cd461       O463   2.479       .  S
C464        O468   1.264       .  A
C464       C2744   1.466       .  S
O469        C472   1.265       .  A
O469       Cd474   2.479       .  S
C470        O479   1.264       .  A
C470        O475   1.264       .  A
C470       C3739   1.467       .  S
O471        C477   1.266       .  A
O471       Cd474   2.503       .  S
C472        O480   1.266       .  A
C472       C2715   1.473       .  S
C473        O478   1.265       .  A
C473        O476   1.264       .  A
C473       C2699   1.482       .  S
Cd474       O481   2.475       .  S
Cd474       O480   2.478       .  S
Cd474       O479   2.460       .  S
Cd474       O475   2.477       .  S
Cd474       O478   2.501       .  S
Cd474       O476   2.511       .  S
C477        O481   1.263       .  A
C477       C3867   1.476       .  S
O482        C485   1.268       .  A
O482       Cd487   2.488       .  S
C483        O492   1.262       .  A
C483        O488   1.264       .  A
C483       C2664   1.469       .  S
O484        C490   1.265       .  A
O484       Cd487   2.495       .  S
C485        O493   1.266       .  A
C485       C2712   1.472       .  S
C486        O491   1.265       .  A
C486        O489   1.264       .  A
C486       C2683   1.479       .  S
Cd487       O494   2.488       .  S
Cd487       O493   2.459       .  S
Cd487       O492   2.474       .  S
Cd487       O488   2.482       .  S
Cd487       O491   2.499       .  S
Cd487       O489   2.496       .  S
C490        O494   1.264       .  A
C490       C3912   1.476       .  S
O495        C498   1.267       .  A
O495       Cd500   2.479       .  S
C496        O505   1.259       .  A
C496        O501   1.266       .  A
C496       C2632   1.471       .  S
O497        C503   1.268       .  A
O497       Cd500   2.499       .  S
C498        O506   1.268       .  A
C498       C2648   1.475       .  S
C499        O504   1.266       .  A
C499        O502   1.262       .  A
C499       C2680   1.484       .  S
Cd500       O507   2.467       .  S
Cd500       O506   2.482       .  S
Cd500       O505   2.435       .  S
Cd500       O501   2.524       .  S
Cd500       O504   2.541       .  S
Cd500       O502   2.483       .  S
C503        O507   1.265       .  A
C503       C3528   1.476       .  S
O508        C511   1.261       .  A
O508       Cd513   2.486       .  S
C509        O518   1.266       .  A
C509        O514   1.267       .  A
C509       C2651   1.470       .  S
O510        C516   1.266       .  A
O510       Cd513   2.500       .  S
C511        O519   1.263       .  A
C511       C4251   1.468       .  S
C512        O517   1.265       .  A
C512        O515   1.267       .  A
C512       C3208   1.472       .  S
Cd513       O520   2.495       .  S
Cd513       O519   2.467       .  S
Cd513       O518   2.461       .  S
Cd513       O514   2.470       .  S
Cd513       O517   2.471       .  S
Cd513       O515   2.473       .  S
C516        O520   1.262       .  A
C516       C2616   1.477       .  S
O521        C524   1.269       .  A
O521       Cd526   2.481       .  S
C522        O531   1.265       .  A
C522        O527   1.263       .  A
C522       C4091   1.475       .  S
O523        C529   1.263       .  A
O523       Cd526   2.456       .  S
C524        O532   1.264       .  A
C524       C2587   1.473       .  S
C525        O530   1.263       .  A
C525        O528   1.264       .  A
C525       C2568   1.477       .  S
Cd526       O533   2.490       .  S
Cd526       O532   2.471       .  S
Cd526       O531   2.493       .  S
Cd526       O527   2.486       .  S
Cd526       O530   2.488       .  S
Cd526       O528   2.513       .  S
C529        O533   1.264       .  A
C529       C2600   1.468       .  S
O534        C537   1.269       .  A
O534       Cd539   2.495       .  S
C535        O544   1.262       .  A
C535        O540   1.267       .  A
C535       C3672   1.472       .  S
O536        C542   1.270       .  A
O536       Cd539   2.526       .  S
C537        O545   1.267       .  A
C537       C2584   1.475       .  S
C538        O543   1.267       .  A
C538        O541   1.264       .  A
C538       C2696   1.482       .  S
Cd539       O546   2.439       .  S
Cd539       O545   2.461       .  S
Cd539       O544   2.449       .  S
Cd539       O540   2.513       .  S
Cd539       O543   2.518       .  S
Cd539       O541   2.488       .  S
C542        O546   1.263       .  A
C542       C2555   1.475       .  S
O547        C550   1.267       .  A
O547       Cd552   2.500       .  S
C548        O557   1.265       .  A
C548        O553   1.262       .  A
C548       C2507   1.476       .  S
O549        C555   1.265       .  A
O549       Cd552   2.491       .  S
C550        O558   1.264       .  A
C550       C2536   1.476       .  S
C551        O556   1.264       .  A
C551        O554   1.264       .  A
C551       C2523   1.486       .  S
Cd552       O559   2.475       .  S
Cd552       O558   2.479       .  S
Cd552       O557   2.495       .  S
Cd552       O553   2.497       .  S
Cd552       O556   2.504       .  S
Cd552       O554   2.533       .  S
C555        O559   1.264       .  A
C555       C3288   1.473       .  S
O560        C563   1.268       .  A
O560       Cd565   2.475       .  S
C561        O570   1.261       .  A
C561        O566   1.266       .  A
C561       C4043   1.467       .  S
O562        C568   1.268       .  A
O562       Cd565   2.491       .  S
C563        O571   1.267       .  A
C563       C2539   1.473       .  S
C564        O569   1.266       .  A
C564        O567   1.263       .  A
C564       C2571   1.477       .  S
Cd565       O572   2.440       .  S
Cd565       O571   2.464       .  S
Cd565       O570   2.443       .  S
Cd565       O566   2.499       .  S
Cd565       O569   2.513       .  S
Cd565       O567   2.468       .  S
C568        O572   1.263       .  A
C568       C3339   1.469       .  S
O573        C576   1.270       .  A
O573       Cd578   2.480       .  S
C574        O583   1.267       .  A
C574        O579   1.259       .  A
C574       C4312   1.471       .  S
O575        C581   1.263       .  A
O575       Cd578   2.426       .  S
C576        O584   1.267       .  A
C576       C2475   1.475       .  S
C577        O582   1.265       .  A
C577        O580   1.263       .  A
C577       C2619   1.474       .  S
Cd578       O585   2.499       .  S
Cd578       O584   2.469       .  S
Cd578       O583   2.537       .  S
Cd578       O579   2.436       .  S
Cd578       O582   2.505       .  S
Cd578       O580   2.472       .  S
C581        O585   1.268       .  A
C581       C2488   1.468       .  S
O586        C589   1.267       .  A
O586       Cd591   2.499       .  S
C587        O596   1.263       .  A
C587        O592   1.263       .  A
C587       C3512   1.471       .  S
O588        C594   1.263       .  A
O588       Cd591   2.475       .  S
C589        O597   1.264       .  A
C589       C2472   1.474       .  S
C590        O595   1.267       .  A
C590        O593   1.263       .  A
C590       C2443   1.481       .  S
Cd591       O598   2.487       .  S
Cd591       O597   2.461       .  S
Cd591       O596   2.477       .  S
Cd591       O592   2.491       .  S
Cd591       O595   2.525       .  S
Cd591       O593   2.484       .  S
C594        O598   1.267       .  A
C594       C2459   1.473       .  S
O599        C602   1.268       .  A
O599       Cd604   2.500       .  S
C600        O609   1.261       .  A
C600        O605   1.266       .  A
C600       C2408   1.474       .  S
O601        C607   1.269       .  A
O601       Cd604   2.500       .  S
C602        O610   1.267       .  A
C602       C2424   1.477       .  S
C603        O608   1.267       .  A
C603        O606   1.263       .  A
C603       C2520   1.486       .  S
Cd604       O611   2.448       .  S
Cd604       O610   2.465       .  S
Cd604       O609   2.455       .  S
Cd604       O605   2.522       .  S
Cd604       O608   2.548       .  S
Cd604       O606   2.494       .  S
C607        O611   1.263       .  A
C607       C3784   1.471       .  S
O612        C615   1.266       .  A
O612       Cd617   2.497       .  S
C613        O622   1.264       .  A
C613        O618   1.264       .  A
C613       C3448   1.474       .  S
O614        C620   1.265       .  A
O614       Cd617   2.469       .  S
C615        O623   1.264       .  A
C615       C2427   1.477       .  S
C616        O621   1.265       .  A
C616        O619   1.264       .  A
C616       C2440   1.482       .  S
Cd617       O624   2.490       .  S
Cd617       O623   2.485       .  S
Cd617       O622   2.491       .  S
Cd617       O618   2.489       .  S
Cd617       O621   2.503       .  S
Cd617       O619   2.509       .  S
C620        O624   1.264       .  A
C620       C4107   1.473       .  S
O625        C628   1.267       .  A
O625       Cd630   2.494       .  S
C626        O635   1.265       .  A
C626        O631   1.263       .  A
C626       C3035   1.472       .  S
O627        C633   1.266       .  A
O627       Cd630   2.501       .  S
C628        O636   1.264       .  A
C628       C2376   1.473       .  S
C629        O634   1.265       .  A
C629        O632   1.264       .  A
C629       C2392   1.470       .  S
Cd630       O637   2.499       .  S
Cd630       O636   2.465       .  S
Cd630       O635   2.469       .  S
Cd630       O631   2.492       .  S
Cd630       O634   2.476       .  S
Cd630       O632   2.465       .  S
C633        O637   1.265       .  A
C633       C2360   1.480       .  S
O638        C641   1.267       .  A
O638       Cd643   2.512       .  S
C639        O648   1.266       .  A
C639        O644   1.269       .  A
C639       C2379   1.469       .  S
O640        C646   1.272       .  A
O640       Cd643   2.525       .  S
C641        O649   1.261       .  A
C641       C2603   1.467       .  S
C642        O647   1.267       .  A
C642        O645   1.264       .  A
C642       C2328   1.479       .  S
Cd643       O650   2.424       .  S
Cd643       O649   2.413       .  S
Cd643       O648   2.444       .  S
Cd643       O644   2.472       .  S
Cd643       O647   2.498       .  S
Cd643       O645   2.492       .  S
C646        O650   1.263       .  A
C646       C2344   1.474       .  S
O651        C654   1.265       .  A
O651       Cd656   2.509       .  S
C652        O661   1.268       .  A
C652        O657   1.268       .  A
C652       C2312   1.472       .  S
O653        C659   1.268       .  A
O653       Cd656   2.505       .  S
C654        O662   1.260       .  A
C654       C2280   1.469       .  S
C655        O660   1.265       .  A
C655        O658   1.262       .  A
C655       C2296   1.478       .  S
Cd656       O663   2.441       .  S
Cd656       O662   2.442       .  S
Cd656       O661   2.463       .  S
Cd656       O657   2.473       .  S
Cd656       O660   2.523       .  S
Cd656       O658   2.474       .  S
C659        O663   1.262       .  A
C659       C2667   1.470       .  S
O664        C667   1.263       .  A
O664       Cd669   2.505       .  S
C665        O674   1.263       .  A
C665        O670   1.267       .  A
C665       C2315   1.473       .  S
O666        C672   1.264       .  A
O666       Cd669   2.481       .  S
C667        O675   1.264       .  A
C667       C3083   1.476       .  S
C668        O673   1.267       .  A
C668        O671   1.263       .  A
C668       C2363   1.482       .  S
Cd669       O676   2.484       .  S
Cd669       O675   2.479       .  S
Cd669       O674   2.471       .  S
Cd669       O670   2.490       .  S
Cd669       O673   2.513       .  S
Cd669       O671   2.504       .  S
C672        O676   1.265       .  A
C672       C2635   1.474       .  S
O677        C680   1.267       .  A
O677       Cd682   2.487       .  S
C678        O687   1.259       .  A
C678        O683   1.264       .  A
C678       C2859   1.471       .  S
O679        C685   1.265       .  A
O679       Cd682   2.511       .  S
C680        O688   1.267       .  A
C680       C2267   1.474       .  S
C681        O686   1.268       .  A
C681        O684   1.263       .  A
C681       C2504   1.473       .  S
Cd682       O689   2.505       .  S
Cd682       O688   2.464       .  S
Cd682       O687   2.457       .  S
Cd682       O683   2.514       .  S
Cd682       O686   2.504       .  S
Cd682       O684   2.454       .  S
C685        O689   1.264       .  A
C685       C2248   1.482       .  S
O690        C693   1.263       .  A
O690       Cd695   2.479       .  S
C691        O700   1.264       .  A
C691        O696   1.267       .  A
C691       C2264   1.472       .  S
O692        C698   1.265       .  A
O692       Cd695   2.484       .  S
C693        O701   1.264       .  A
C693       C2216   1.470       .  S
C694        O699   1.266       .  A
C694        O697   1.264       .  A
C694       C2232   1.481       .  S
Cd695       O702   2.470       .  S
Cd695       O701   2.475       .  S
Cd695       O700   2.453       .  S
Cd695       O696   2.495       .  S
Cd695       O699   2.506       .  S
Cd695       O697   2.500       .  S
C698        O702   1.264       .  A
C698       C2411   1.472       .  S
O703        C706   1.265       .  A
O703       Cd708   2.539       .  S
C704        O713   1.266       .  A
C704        O709   1.269       .  A
C704       C2203   1.472       .  S
O705        C711   1.270       .  A
O705       Cd708   2.527       .  S
C706        O714   1.259       .  A
C706       C2184   1.472       .  S
C707        O712   1.266       .  A
C707        O710   1.263       .  A
C707       C2299   1.479       .  S
Cd708       O715   2.432       .  S
Cd708       O714   2.430       .  S
Cd708       O713   2.436       .  S
Cd708       O709   2.498       .  S
Cd708       O712   2.512       .  S
Cd708       O710   2.484       .  S
C711        O715   1.263       .  A
C711       C2728   1.476       .  S
O716        C719   1.269       .  A
O716       Cd721   2.483       .  S
C717        O726   1.259       .  A
C717        O722   1.267       .  A
C717       C2456   1.471       .  S
O718        C724   1.267       .  A
O718       Cd721   2.508       .  S
C719        O727   1.266       .  A
C719       C2200   1.471       .  S
C720        O725   1.272       .  A
C720        O723   1.264       .  A
C720       C2872   1.472       .  S
Cd721       O728   2.468       .  S
Cd721       O727   2.449       .  S
Cd721       O726   2.437       .  S
Cd721       O722   2.531       .  S
Cd721       O725   2.509       .  S
Cd721       O723   2.414       .  S
C724        O728   1.263       .  A
C724       C2171   1.476       .  S
O729        C732   1.264       .  A
O729       Cd734   2.485       .  S
C730        O739   1.264       .  A
C730        O735   1.267       .  A
C730       C2139   1.472       .  S
O731        C737   1.265       .  A
O731       Cd734   2.464       .  S
C732        O740   1.263       .  A
C732       C2491   1.469       .  S
C733        O738   1.263       .  A
C733        O736   1.264       .  A
C733       C2168   1.474       .  S
Cd734       O741   2.483       .  S
Cd734       O740   2.466       .  S
Cd734       O739   2.452       .  S
Cd734       O735   2.496       .  S
Cd734       O738   2.493       .  S
Cd734       O736   2.481       .  S
C737        O741   1.263       .  A
C737       C2152   1.470       .  S
O742        C745   1.264       .  A
O742       Cd747   2.473       .  S
C743        O752   1.264       .  A
C743        O748   1.267       .  A
C743       C2136   1.474       .  S
O744        C750   1.266       .  A
O744       Cd747   2.494       .  S
C745        O753   1.263       .  A
C745       C2811   1.473       .  S
C746        O751   1.264       .  A
C746        O749   1.266       .  A
C746       C2251   1.481       .  S
Cd747       O754   2.479       .  S
Cd747       O753   2.498       .  S
Cd747       O752   2.470       .  S
Cd747       O748   2.496       .  S
Cd747       O751   2.502       .  S
Cd747       O749   2.506       .  S
C750        O754   1.263       .  A
C750       C2123   1.475       .  S
O755        C758   1.262       .  A
O755       Cd760   2.481       .  S
C756        O765   1.266       .  A
C756        O761   1.266       .  A
C756       C2104   1.474       .  S
O757        C763   1.264       .  A
O757       Cd760   2.479       .  S
C758        O766   1.263       .  A
C758       C2552   1.470       .  S
C759        O764   1.265       .  A
C759        O762   1.264       .  A
C759       C2331   1.481       .  S
Cd760       O767   2.493       .  S
Cd760       O766   2.482       .  S
Cd760       O765   2.473       .  S
Cd760       O761   2.491       .  S
Cd760       O764   2.517       .  S
Cd760       O762   2.490       .  S
C763        O767   1.267       .  A
C763       C3099   1.476       .  S
O768        C771   1.268       .  A
O768       Cd773   2.482       .  S
C769        O778   1.260       .  A
C769        O774   1.266       .  A
C769       C2091   1.473       .  S
O770        C776   1.267       .  A
O770       Cd773   2.522       .  S
C771        O779   1.267       .  A
C771       C2107   1.475       .  S
C772        O777   1.270       .  A
C772        O775   1.262       .  A
C772       C2939   1.471       .  S
Cd773       O780   2.491       .  S
Cd773       O779   2.471       .  S
Cd773       O778   2.445       .  S
Cd773       O774   2.526       .  S
Cd773       O777   2.514       .  S
Cd773       O775   2.431       .  S
C776        O780   1.263       .  A
C776       C2235   1.481       .  S
O781        C784   1.266       .  A
O781       Cd786   2.482       .  S
C782        O791   1.263       .  A
C782        O787   1.262       .  A
C782       C2043   1.468       .  S
O783        C789   1.265       .  A
O783       Cd786   2.486       .  S
C784        O792   1.266       .  A
C784       C2072   1.473       .  S
C785        O790   1.266       .  A
C785        O788   1.263       .  A
C785       C2059   1.481       .  S
Cd786       O793   2.471       .  S
Cd786       O792   2.472       .  S
Cd786       O791   2.481       .  S
Cd786       O787   2.475       .  S
Cd786       O790   2.519       .  S
Cd786       O788   2.486       .  S
C789        O793   1.265       .  A
C789       C2088   1.473       .  S
O794        C797   1.270       .  A
O794       Cd799   2.498       .  S
C795        O804   1.259       .  A
C795        O800   1.269       .  A
C795       C3816   1.469   1_455  S
O796        C802   1.270       .  A
O796       Cd799   2.507       .  S
C797        O805   1.267       .  A
C797       C2075   1.474       .  S
C798        O803   1.267       .  A
C798        O801   1.264       .  A
C798       C2027   1.481       .  S
Cd799       O806   2.423       .  S
Cd799       O805   2.444       .  S
Cd799       O804   2.419       .  S
Cd799       O800   2.535       .  S
Cd799       O803   2.523       .  S
Cd799       O801   2.480       .  S
C802        O806   1.263       .  A
C802       C2219   1.471       .  S
O807        C810   1.266       .  A
O807       Cd812   2.495       .  S
C808        O817   1.264       .  A
C808        O813   1.264       .  A
C808       C2347   1.473       .  S
O809        C815   1.266       .  A
O809       Cd812   2.504       .  S
C810        O818   1.264       .  A
C810       C2011   1.474       .  S
C811        O816   1.266       .  A
C811        O814   1.263       .  A
C811       C1995   1.480       .  S
Cd812       O819   2.474       .  S
Cd812       O818   2.472       .  S
Cd812       O817   2.472       .  S
Cd812       O813   2.488       .  S
Cd812       O816   2.505       .  S
Cd812       O814   2.499       .  S
C815        O819   1.264       .  A
C815       C4059   1.477       .  S
O820        C823   1.260       .  A
O820       Cd825   2.440       .  S
C821        O830   1.267       .  A
C821        O826   1.268       .  A
C821       C2008   1.472       .  S
O822        C828   1.268       .  A
O822       Cd825   2.506       .  S
C823        O831   1.267       .  A
C823       C1960   1.469       .  S
C824        O829   1.263       .  A
C824        O827   1.270       .  A
C824       C4155   1.471       .  S
Cd825       O832   2.474       .  S
Cd825       O831   2.513       .  S
Cd825       O830   2.465       .  S
Cd825       O826   2.470       .  S
Cd825       O829   2.405       .  S
Cd825       O827   2.516       .  S
C828        O832   1.263       .  A
C828       C1976   1.477       .  S
O833        C836   1.269       .  A
O833       Cd838   2.480       .  S
C834        O843   1.262       .  A
C834        O839   1.266       .  A
C834       C2395   1.474       .  S
O835        C841   1.270       .  A
O835       Cd838   2.505       .  S
C836        O844   1.267       .  A
C836       C1931   1.475       .  S
C837        O842   1.267       .  A
C837        O840   1.263       .  A
C837       C1992   1.477       .  S
Cd838       O845   2.420       .  S
Cd838       O844   2.469       .  S
Cd838       O843   2.461       .  S
Cd838       O839   2.517       .  S
Cd838       O842   2.526       .  S
Cd838       O840   2.457       .  S
C841        O845   1.263       .  A
C841       C1944   1.470       .  S
O846        C849   1.269       .  A
O846       Cd851   2.522       .  S
C847        O856   1.265       .  A
C847        O852   1.263       .  A
C847       C3771   1.471       .  S
O848        C854   1.264       .  A
O848       Cd851   2.485       .  S
C849        O857   1.263       .  A
C849       C1928   1.477       .  S
C850        O855   1.265       .  A
C850        O853   1.265       .  A
C850       C2024   1.480       .  S
Cd851       O858   2.486       .  S
Cd851       O857   2.450       .  S
Cd851       O856   2.491       .  S
Cd851       O852   2.465       .  S
Cd851       O855   2.493       .  S
Cd851       O853   2.506       .  S
C854        O858   1.263       .  A
C854       C1912   1.473       .  S
O859        C862   1.268       .  A
O859       Cd864   2.484       .  S
C860        O869   1.262       .  A
C860        O865   1.264       .  A
C860       C1883   1.469       .  S
O861        C867   1.264       .  A
O861       Cd864   2.487       .  S
C862        O870   1.267       .  A
C862       C1899   1.475       .  S
C863        O868   1.265       .  A
C863        O866   1.264       .  A
C863       C1979   1.478       .  S
Cd864       O871   2.473       .  S
Cd864       O870   2.473       .  S
Cd864       O869   2.469       .  S
Cd864       O865   2.481       .  S
Cd864       O868   2.500       .  S
Cd864       O866   2.494       .  S
C867        O871   1.262       .  A
C867       C2187   1.470       .  S
O872        C875   1.267       .  A
O872       Cd877   2.502       .  S
C873        O882   1.265       .  A
C873        O878   1.263       .  A
C873       C3947   1.471       .  S
O874        C880   1.263       .  A
O874       Cd877   2.474       .  S
C875        O883   1.264       .  A
C875       C1896   1.474       .  S
C876        O881   1.266       .  A
C876        O879   1.264       .  A
C876       C1864   1.479       .  S
Cd877       O884   2.488       .  S
Cd877       O883   2.453       .  S
Cd877       O882   2.501       .  S
Cd877       O878   2.455       .  S
Cd877       O881   2.504       .  S
Cd877       O879   2.489       .  S
C880        O884   1.264       .  A
C880       C2283   1.471       .  S
O885        C888   1.269       .  A
O885       Cd890   2.478       .  S
C886        O895   1.266       .  A
C886        O891   1.259       .  A
C886       C2155   1.468       .  S
O887        C893   1.263       .  A
O887       Cd890   2.442       .  S
C888        O896   1.267       .  A
C888       C1851   1.473       .  S
C889        O894   1.265       .  A
C889        O892   1.264       .  A
C889       C1832   1.481       .  S
Cd890       O897   2.508       .  S
Cd890       O896   2.464       .  S
Cd890       O895   2.530       .  S
Cd890       O891   2.428       .  S
Cd890       O894   2.513       .  S
Cd890       O892   2.497       .  S
C893        O897   1.269       .  A
C893       C4267   1.473       .  S
O898        C901   1.267       .  A
O898       Cd903   2.483       .  S
C899        O908   1.264       .  A
C899        O904   1.263       .  A
C899       C1819   1.471       .  S
O900        C906   1.265       .  A
O900       Cd903   2.461       .  S
C901        O909   1.265       .  A
C901       C1848   1.474       .  S
C902        O907   1.266       .  A
C902        O905   1.264       .  A
C902       C2056   1.480       .  S
Cd903       O910   2.503       .  S
Cd903       O909   2.476       .  S
Cd903       O908   2.492       .  S
Cd903       O904   2.472       .  S
Cd903       O907   2.505       .  S
Cd903       O905   2.495       .  S
C906        O910   1.264       .  A
C906       C3835   1.474       .  S
O911        C914   1.270       .  A
O911       Cd916   2.522       .  S
C912        O921   1.268       .  A
C912        O917   1.259       .  A
C912       C2120   1.477       .  S
O913        C919   1.263       .  A
O913       Cd916   2.417       .  S
C914        O922   1.266       .  A
C914       C1787   1.482       .  S
C915        O920   1.265       .  A
C915        O918   1.265       .  A
C915       C1835   1.485       .  S
Cd916       O923   2.519       .  S
Cd916       O922   2.472       .  S
Cd916       O921   2.543       .  S
Cd916       O917   2.456       .  S
Cd916       O920   2.519       .  S
Cd916       O918   2.512       .  S
C919        O923   1.270       .  A
C919       C1803   1.472       .  S
O924        C927   1.265       .  A
O924       Cd929   2.481       .  S
C925        O934   1.265       .  A
C925        O930   1.266       .  A
C925       C1784   1.477       .  S
O926        C932   1.265       .  A
O926       Cd929   2.523       .  S
C927        O935   1.262       .  A
C927       C3995   1.472       .  S
C928        O933   1.265       .  A
C928        O931   1.264       .  A
C928       C1768   1.470       .  S
Cd929       O936   2.482       .  S
Cd929       O935   2.487       .  S
Cd929       O934   2.485       .  S
Cd929       O930   2.486       .  S
Cd929       O933   2.461       .  S
Cd929       O931   2.482       .  S
C932        O936   1.264       .  A
C932       C1867   1.481       .  S
O937        C940   1.267       .  A
O937       Cd942   2.493       .  S
C938        O947   1.263       .  A
C938        O943   1.263       .  A
C938       C1723   1.475       .  S
O939        C945   1.266       .  A
O939       Cd942   2.497       .  S
C940        O948   1.265       .  A
C940       C1752   1.477       .  S
C941        O946   1.268       .  A
C941        O944   1.263       .  A
C941       C1736   1.486       .  S
Cd942       O949   2.500       .  S
Cd942       O948   2.484       .  S
Cd942       O947   2.494       .  S
Cd942       O943   2.492       .  S
Cd942       O946   2.535       .  S
Cd942       O944   2.501       .  S
C945        O949   1.264       .  A
C945       C3755   1.480       .  S
O950        C953   1.266       .  A
O950       Cd955   2.491       .  S
C951        O960   1.262       .  A
C951        O956   1.266       .  A
C951       C3243   1.474       .  S
O952        C958   1.265       .  A
O952       Cd955   2.456       .  S
C953        O961   1.265       .  A
C953       C1755   1.474       .  S
C954        O959   1.263       .  A
C954        O957   1.265       .  A
C954       C1707   1.479       .  S
Cd955       O962   2.484       .  S
Cd955       O961   2.470       .  S
Cd955       O960   2.481       .  S
Cd955       O956   2.496       .  S
Cd955       O959   2.500       .  S
Cd955       O957   2.505       .  S
C958        O962   1.265       .  A
C958       C4216   1.469       .  S
O963        C966   1.267       .  A
O963       Cd968   2.497       .  S
C964        O973   1.263       .  A
C964        O969   1.263       .  A
C964       C3899   1.470       .  S
O965        C971   1.264       .  A
O965       Cd968   2.489       .  S
C966        O974   1.265       .  A
C966       C1691   1.473       .  S
C967        O972   1.266       .  A
C967        O970   1.264       .  A
C967       C1672   1.481       .  S
Cd968       O975   2.476       .  S
Cd968       O974   2.458       .  S
Cd968       O973   2.486       .  S
Cd968       O969   2.470       .  S
Cd968       O972   2.519       .  S
Cd968       O970   2.485       .  S
C971        O975   1.266       .  A
C971       C3691   1.475       .  S
O976        C979   1.269       .  A
O976       Cd981   2.487       .  S
C977        O986   1.259       .  A
C977        O982   1.266       .  A
C977       C1656   1.470       .  S
O978        C984   1.270       .  A
O978       Cd981   2.508       .  S
C979        O987   1.268       .  A
C979       C1688   1.475       .  S
C980        O985   1.267       .  A
C980        O983   1.262       .  A
C980       C1739   1.484       .  S
Cd981       O988   2.443       .  S
Cd981       O987   2.458       .  S
Cd981       O986   2.447       .  S
Cd981       O982   2.526       .  S
Cd981       O985   2.539       .  S
Cd981       O983   2.488       .  S
C984        O988   1.261       .  A
C984       C3259   1.471       .  S
O989        C992   1.270       .  A
O989       Cd994   2.497       .  S
C990        O999   1.268       .  A
C990        O995   1.261       .  A
C990       C4203   1.475       .  S
O991        C997   1.270       .  A
O991       Cd994   2.507       .  S
C992       O1000   1.267       .  A
C992       C1624   1.478       .  S
C993        O998   1.267       .  A
C993        O996   1.264       .  A
C993       C1608   1.476       .  S
Cd994      O1001   2.411       .  S
Cd994      O1000   2.462       .  S
Cd994       O999   2.528       .  S
Cd994       O995   2.450       .  S
Cd994       O998   2.509       .  S
Cd994       O996   2.466       .  S
C997       O1001   1.263       .  A
C997       C1640   1.466       .  S
O1002      C1005   1.270       .  A
O1002     Cd1007   2.498       .  S
C1003      O1012   1.262       .  A
C1003      O1008   1.269       .  A
C1003      C3195   1.472       .  S
O1004      C1010   1.272       .  A
O1004     Cd1007   2.515       .  S
C1005      O1013   1.267       .  A
C1005      C1627   1.479       .  S
C1006      O1011   1.269       .  A
C1006      O1009   1.265       .  A
C1006      C1704   1.479       .  S
Cd1007     O1014   2.405       .  S
Cd1007     O1013   2.459       .  S
Cd1007     O1012   2.417       .  S
Cd1007     O1008   2.524       .  S
Cd1007     O1011   2.511       .  S
Cd1007     O1009   2.469       .  S
C1010      O1014   1.264       .  A
C1010      C1592   1.471       .  S
O1015      C1018   1.269       .  A
O1015     Cd1020   2.474       .  S
C1016      O1025   1.262       .  A
C1016      O1021   1.264       .  A
C1016      C4136   1.473       .  S
O1017      C1023   1.266       .  A
O1017     Cd1020   2.479       .  S
C1018      O1026   1.264       .  A
C1018      C1579   1.467       .  S
C1019      O1024   1.265       .  A
C1019      O1022   1.263       .  A
C1019      C1611   1.475       .  S
Cd1020     O1027   2.460       .  S
Cd1020     O1026   2.441       .  S
Cd1020     O1025   2.494       .  S
Cd1020     O1021   2.484       .  S
Cd1020     O1024   2.501       .  S
Cd1020     O1022   2.479       .  S
C1023      O1027   1.262       .  A
C1023      C3435   1.468       .  S
O1028      C1031   1.270       .  A
O1028     Cd1033   2.501       .  S
C1029      O1038   1.260       .  A
C1029      O1034   1.268       .  A
C1029      C1544   1.473       .  S
O1030      C1036   1.269       .  A
O1030     Cd1033   2.480       .  S
C1031      O1039   1.264       .  A
C1031      C1576   1.471       .  S
C1032      O1037   1.266       .  A
C1032      O1035   1.264       .  A
C1032      C1563   1.473       .  S
Cd1033     O1040   2.444       .  S
Cd1033     O1039   2.442       .  S
Cd1033     O1038   2.426       .  S
Cd1033     O1034   2.531       .  S
Cd1033     O1037   2.492       .  S
Cd1033     O1035   2.472       .  S
C1036      O1040   1.265       .  A
C1036      C3579   1.468       .  S
O1041      C1044   1.266       .  A
O1041     Cd1046   2.493       .  S
C1042      O1051   1.263       .  A
C1042      O1047   1.265       .  A
C1042      C3416   1.469       .  S
O1043      C1049   1.264       .  A
O1043     Cd1046   2.457       .  S
C1044      O1052   1.263       .  A
C1044      C1512   1.474       .  S
C1045      O1050   1.265       .  A
C1045      O1048   1.264       .  A
C1045      C1499   1.478       .  S
Cd1046     O1053   2.480       .  S
Cd1046     O1052   2.478       .  S
Cd1046     O1051   2.477       .  S
Cd1046     O1047   2.466       .  S
Cd1046     O1050   2.505       .  S
Cd1046     O1048   2.488       .  S
C1049      O1053   1.266       .  A
C1049      C1531   1.469       .  S
O1054      C1057   1.267       .  A
O1054     Cd1059   2.488       .  S
C1055      O1064   1.263       .  A
C1055      O1060   1.264       .  A
C1055      C3848   1.471       .  S
O1056      C1062   1.264       .  A
O1056     Cd1059   2.469       .  S
C1057      O1065   1.265       .  A
C1057      C1515   1.475       .  S
C1058      O1063   1.264       .  A
C1058      O1061   1.265       .  A
C1058      C1675   1.479       .  S
Cd1059     O1066   2.483       .  S
Cd1059     O1065   2.472       .  S
Cd1059     O1064   2.476       .  S
Cd1059     O1060   2.485       .  S
Cd1059     O1063   2.488       .  S
Cd1059     O1061   2.511       .  S
C1062      O1066   1.264       .  A
C1062      C1480   1.470       .  S
O1067      C1070   1.267       .  A
O1067     Cd1072   2.496       .  S
C1068      O1077   1.264       .  A
C1068      O1073   1.264       .  A
C1068      C1451   1.469       .  S
O1069      C1075   1.264       .  A
O1069     Cd1072   2.458       .  S
C1070      O1078   1.263       .  A
C1070      C1464   1.470       .  S
C1071      O1076   1.264       .  A
C1071      O1074   1.264       .  A
C1071      C1560   1.473       .  S
Cd1072     O1079   2.478       .  S
Cd1072     O1078   2.438       .  S
Cd1072     O1077   2.479       .  S
Cd1072     O1073   2.466       .  S
Cd1072     O1076   2.474       .  S
Cd1072     O1074   2.494       .  S
C1075      O1079   1.264       .  A
C1075      C3960   1.468       .  S
O1080      C1083   1.269       .  A
O1080     Cd1085   2.474       .  S
C1081      O1090   1.266       .  A
C1081      O1086   1.259       .  A
C1081      C3371   1.471       .  S
O1082      C1088   1.263       .  A
O1082     Cd1085   2.436       .  S
C1083      O1091   1.266       .  A
C1083      C1467   1.469       .  S
C1084      O1089   1.267       .  A
C1084      O1087   1.263       .  A
C1084      C1496   1.476       .  S
Cd1085     O1092   2.500       .  S
Cd1085     O1091   2.450       .  S
Cd1085     O1090   2.530       .  S
Cd1085     O1086   2.439       .  S
Cd1085     O1089   2.502       .  S
Cd1085     O1087   2.479       .  S
C1088      O1092   1.270       .  A
C1088      C4011   1.470       .  S
O1093      C1096   1.261       .  A
O1093     Cd1098   2.429       .  S
C1094      O1103   1.268       .  A
C1094      O1099   1.269       .  A
C1094      C1435   1.476       .  S
O1095      C1101   1.263       .  A
O1095     Cd1098   2.417       .  S
C1096      O1104   1.268       .  A
C1096      C1771   1.467       .  S
C1097      O1102   1.268       .  A
C1097      O1100   1.265       .  A
C1097      C1416   1.481       .  S
Cd1098     O1105   2.521       .  S
Cd1098     O1104   2.506       .  S
Cd1098     O1103   2.462       .  S
Cd1098     O1099   2.486       .  S
Cd1098     O1102   2.520       .  S
Cd1098     O1100   2.468       .  S
C1101      O1105   1.271       .  A
C1101      C1448   1.472       .  S
O1106      C1109   1.264       .  A
O1106     Cd1111   2.488       .  S
C1107      O1116   1.264       .  A
C1107      O1112   1.268       .  A
C1107      C1432   1.475       .  S
O1108      C1114   1.265       .  A
O1108     Cd1111   2.475       .  S
C1109      O1117   1.263       .  A
C1109      C2987   1.472       .  S
C1110      O1115   1.267       .  A
C1110      O1113   1.263       .  A
C1110      C1400   1.476       .  S
Cd1111     O1118   2.480       .  S
Cd1111     O1117   2.477       .  S
Cd1111     O1116   2.460       .  S
Cd1111     O1112   2.505       .  S
Cd1111     O1115   2.502       .  S
Cd1111     O1113   2.474       .  S
C1114      O1118   1.263       .  A
C1114      C1547   1.471       .  S
O1119      C1122   1.264       .  A
O1119     Cd1124   2.472       .  S
C1120      O1129   1.265       .  A
C1120      O1125   1.266       .  A
C1120      C1384   1.476       .  S
O1121      C1127   1.264       .  A
O1121     Cd1124   2.493       .  S
C1122      O1130   1.263       .  A
C1122      C1595   1.467       .  S
C1123      O1128   1.267       .  A
C1123      O1126   1.263       .  A
C1123      C1371   1.480       .  S
Cd1124     O1131   2.496       .  S
Cd1124     O1130   2.464       .  S
Cd1124     O1129   2.470       .  S
Cd1124     O1125   2.500       .  S
Cd1124     O1128   2.512       .  S
Cd1124     O1126   2.487       .  S
C1127      O1131   1.265       .  A
C1127      C3128   1.478       .  S
O1132      C1135   1.264       .  A
O1132     Cd1137   2.492       .  S
C1133      O1142   1.266       .  A
C1133      O1138   1.267       .  A
C1133      C1387   1.477       .  S
O1134      C1140   1.264       .  A
O1134     Cd1137   2.487       .  S
C1135      O1143   1.262       .  A
C1135      C1800   1.471       .  S
C1136      O1141   1.265       .  A
C1136      O1139   1.265       .  A
C1136      C1419   1.482       .  S
Cd1137     O1144   2.481       .  S
Cd1137     O1143   2.468       .  S
Cd1137     O1142   2.484       .  S
Cd1137     O1138   2.488       .  S
Cd1137     O1141   2.511       .  S
Cd1137     O1139   2.504       .  S
C1140      O1144   1.264       .  A
C1140      C2792   1.475       .  S
O1145      C1148   1.262       .  A
O1145     Cd1150   2.430       .  S
C1146      O1155   1.270       .  A
C1146      O1151   1.267       .  A
C1146      C1352   1.472       .  S
O1147      C1153   1.263       .  A
O1147     Cd1150   2.431       .  S
C1148      O1156   1.268       .  A
C1148      C1528   1.472       .  S
C1149      O1154   1.268       .  A
C1149      O1152   1.265       .  A
C1149      C1339   1.483       .  S
Cd1150     O1157   2.530       .  S
Cd1150     O1156   2.516       .  S
Cd1150     O1155   2.491       .  S
Cd1150     O1151   2.430       .  S
Cd1150     O1154   2.521       .  S
Cd1150     O1152   2.486       .  S
C1153      O1157   1.272       .  A
C1153      C2907   1.477       .  S
O1158      C1161   1.263       .  A
O1158     Cd1163   2.477       .  S
C1159      O1168   1.265       .  A
C1159      O1164   1.267       .  A
C1159      C1355   1.472       .  S
O1160      C1166   1.265       .  A
O1160     Cd1163   2.475       .  S
C1161      O1169   1.263       .  A
C1161      C1947   1.471       .  S
C1162      O1167   1.264       .  A
C1162      O1165   1.265       .  A
C1162      C1320   1.480       .  S
Cd1163     O1170   2.479       .  S
Cd1163     O1169   2.490       .  S
Cd1163     O1168   2.461       .  S
Cd1163     O1164   2.481       .  S
Cd1163     O1167   2.506       .  S
Cd1163     O1165   2.492       .  S
C1166      O1170   1.263       .  A
C1166      C3000   1.471       .  S
O1171      C1174   1.267       .  A
O1171     Cd1176   2.494       .  S
C1172      O1181   1.263       .  A
C1172      O1177   1.263       .  A
C1172      C2779   1.471       .  S
O1173      C1179   1.265       .  A
O1173     Cd1176   2.500       .  S
C1174      O1182   1.265       .  A
C1174      C1307   1.474       .  S
C1175      O1180   1.263       .  A
C1175      O1178   1.265       .  A
C1175      C1659   1.469       .  S
Cd1176     O1183   2.496       .  S
Cd1176     O1182   2.466       .  S
Cd1176     O1181   2.475       .  S
Cd1176     O1177   2.487       .  S
Cd1176     O1180   2.470       .  S
Cd1176     O1178   2.471       .  S
C1179      O1183   1.264       .  A
C1179      C1288   1.478       .  S
O1184      C1187   1.269       .  A
O1184     Cd1189   2.480       .  S
C1185      O1194   1.268       .  A
C1185      O1190   1.261       .  A
C1185      C1915   1.469       .  S
O1186      C1192   1.269       .  A
O1186     Cd1189   2.533       .  S
C1187      O1195   1.268       .  A
C1187      C1304   1.474       .  S
C1188      O1193   1.264       .  A
C1188      O1191   1.272       .  A
C1188      C1720   1.476       .  S
Cd1189     O1196   2.469       .  S
Cd1189     O1195   2.457       .  S
Cd1189     O1194   2.512       .  S
Cd1189     O1190   2.433       .  S
Cd1189     O1193   2.438       .  S
Cd1189     O1191   2.512       .  S
C1192      O1196   1.263       .  A
C1192      C1323   1.481       .  S
O1197      C1200   1.264       .  A
O1197     Cd1202   2.461       .  S
C1198      O1207   1.265       .  A
C1198      O1203   1.266       .  A
C1198      C1275   1.472       .  S
O1199      C1205   1.265       .  A
O1199     Cd1202   2.469       .  S
C1200      O1208   1.262       .  A
C1200      C1643   1.467       .  S
C1201      O1206   1.266       .  A
C1201      O1204   1.264       .  A
C1201      C1368   1.481       .  S
Cd1202     O1209   2.485       .  S
Cd1202     O1208   2.476       .  S
Cd1202     O1207   2.466       .  S
Cd1202     O1203   2.481       .  S
Cd1202     O1206   2.508       .  S
Cd1202     O1204   2.496       .  S
C1205      O1209   1.265       .  A
C1205      C1963   1.472       .  S
O1210      C1213   1.261       .  A
O1210     Cd1215   2.431       .  S
C1211      O1220   1.267       .  A
C1211      O1216   1.269       .  A
C1211      C1272   1.471       .  S
O1212      C1218   1.263       .  A
O1212     Cd1215   2.409       .  S
C1213      O1221   1.267       .  A
C1213      C2747   1.467       .  S
C1214      O1219   1.268       .  A
C1214      O1217   1.264       .  A
C1214      C1291   1.477       .  S
Cd1215     O1222   2.508       .  S
Cd1215     O1221   2.503       .  S
Cd1215     O1220   2.442       .  S
Cd1215     O1216   2.483       .  S
Cd1215     O1219   2.510       .  S
Cd1215     O1217   2.465       .  S
C1218      O1222   1.272       .  A
C1218      C1880   1.468       .  S
O1223      C1226   1.269       .  A
O1223     Cd1228   2.507       .  S
C1224      O1233   1.259       .  A
C1224      O1229   1.266       .  A
C1224      C2952   1.475       .  S
O1225      C1231   1.265       .  A
O1225     Cd1228   2.502       .  S
C1226      O1234   1.265       .  A
C1226      C1256   1.478       .  S
C1227      O1232   1.269       .  A
C1227      O1230   1.263       .  A
C1227      C2040   1.469       .  S
Cd1228     O1235   2.492       .  S
Cd1228     O1234   2.467       .  S
Cd1228     O1233   2.463       .  S
Cd1228     O1229   2.534       .  S
Cd1228     O1232   2.505       .  S
Cd1228     O1230   2.422       .  S
C1231      O1235   1.263       .  A
C1231      C1403   1.477       .  S
O1236      C1239   1.261       .  A
O1236     Cd1241   2.443       .  S
C1237      O1246   1.268       .  A
C1237      O1242   1.269       .  A
C1237      C1259   1.476       .  S
O1238      C1244   1.261       .  A
O1238     Cd1241   2.424       .  S
C1239      O1247   1.266       .  A
C1239      C1483   1.470       .  S
C1240      O1245   1.266       .  A
C1240      O1243   1.264       .  A
C1240      C1336   1.483       .  S
Cd1241     O1248   2.527       .  S
Cd1241     O1247   2.517       .  S
Cd1241     O1246   2.460       .  S
Cd1241     O1242   2.484       .  S
Cd1241     O1245   2.528       .  S
Cd1241     O1243   2.491       .  S
C1244      O1248   1.270       .  A
C1244      C1816   1.474       .  S
C1249      C1254   1.380       .  A
C1249      C1250   1.405       .  A
C1249      O1255   1.323       .  A
C1250      C1251   1.405       .  A
C1250      H1261   1.082       .  S
C1251      C1260   1.363       .  A
C1251      C1252   1.380       .  A
C1252      C1253   1.406       .  A
C1252      O1258   1.323       .  A
C1253      C1254   1.406       .  A
C1253      H1262   1.082       .  S
C1254      C1257   1.364       .  A
O1255      C1256   1.332       .  A
C1256      C1257   1.393       .  A
C1257      H1263   1.082       .  S
O1258      C1259   1.333       .  A
C1259      C1260   1.392       .  A
C1260      H1264   1.082       .  S
C1265      C1270   1.381       .  A
C1265      C1266   1.405       .  A
C1265      O1271   1.322       .  A
C1266      C1267   1.405       .  A
C1266      H1277   1.082       .  S
C1267      C1276   1.362       .  A
C1267      C1268   1.380       .  A
C1268      C1269   1.403       .  A
C1268      O1274   1.320       .  A
C1269      C1270   1.403       .  A
C1269      H1278   1.082       .  S
C1270      C1273   1.360       .  A
O1271      C1272   1.331       .  A
C1272      C1273   1.391       .  A
C1273      H1279   1.082       .  S
O1274      C1275   1.331       .  A
C1275      C1276   1.392       .  A
C1276      H1280   1.082       .  S
C1281      C1286   1.380       .  A
C1281      C1282   1.406       .  A
C1281      O1287   1.322       .  A
C1282      C1283   1.405       .  A
C1282      H1293   1.082       .  S
C1283      C1292   1.363       .  A
C1283      C1284   1.380       .  A
C1284      C1285   1.407       .  A
C1284      O1290   1.323       .  A
C1285      C1286   1.407       .  A
C1285      H1294   1.082       .  S
C1286      C1289   1.366       .  A
O1287      C1288   1.332       .  A
C1288      C1289   1.394       .  A
C1289      H1295   1.082       .  S
O1290      C1291   1.332       .  A
C1291      C1292   1.393       .  A
C1292      H1296   1.082       .  S
C1297      C1302   1.380       .  A
C1297      C1298   1.405       .  A
C1297      O1303   1.322       .  A
C1298      C1299   1.405       .  A
C1298      H1309   1.082       .  S
C1299      C1308   1.363       .  A
C1299      C1300   1.380       .  A
C1300      C1301   1.405       .  A
C1300      O1306   1.322       .  A
C1301      C1302   1.405       .  A
C1301      H1310   1.082       .  S
C1302      C1305   1.362       .  A
O1303      C1304   1.332       .  A
C1304      C1305   1.392       .  A
C1305      H1311   1.082       .  S
O1306      C1307   1.331       .  A
C1307      C1308   1.393       .  A
C1308      H1312   1.082       .  S
C1313      C1318   1.379       .  A
C1313      C1314   1.410       .  A
C1313      O1319   1.324       .  A
C1314      C1315   1.409       .  A
C1314      H1325   1.082       .  S
C1315      C1324   1.370   1_565  A
C1315      C1316   1.380       .  A
C1316      C1317   1.405       .  A
C1316      O1322   1.320   1_565  A
C1317      C1318   1.404       .  A
C1317      H1326   1.082       .  S
C1318      C1321   1.364       .  A
O1319      C1320   1.334       .  A
C1320      C1321   1.392       .  A
C1321      H1327   1.082       .  S
O1322      C1323   1.332       .  A
C1323      C1324   1.395       .  A
C1324      H1328   1.082       .  S
C1329      C1334   1.380       .  A
C1329      C1330   1.408       .  A
C1329      O1335   1.325       .  A
C1330      C1331   1.408       .  A
C1330      H1341   1.082       .  S
C1331      C1340   1.367       .  A
C1331      C1332   1.380       .  A
C1332      C1333   1.407       .  A
C1332      O1338   1.324       .  A
C1333      C1334   1.407       .  A
C1333      H1342   1.082       .  S
C1334      C1337   1.366       .  A
O1335      C1336   1.334       .  A
C1336      C1337   1.394       .  A
C1337      H1343   1.082       .  S
O1338      C1339   1.333       .  A
C1339      C1340   1.395       .  A
C1340      H1344   1.082       .  S
C1345      C1350   1.380       .  A
C1345      C1346   1.406       .  A
C1345      O1351   1.323       .  A
C1346      C1347   1.407       .  A
C1346      H1357   1.082       .  S
C1347      C1356   1.363       .  A
C1347      C1348   1.381       .  A
C1348      C1349   1.402       .  A
C1348      O1354   1.320       .  A
C1349      C1350   1.402       .  A
C1349      H1358   1.082       .  S
C1350      C1353   1.358       .  A
O1351      C1352   1.333       .  A
C1352      C1353   1.390       .  A
C1353      H1359   1.082       .  S
O1354      C1355   1.330       .  A
C1355      C1356   1.393       .  A
C1356      H1360   1.082       .  S
C1361      C1366   1.379       .  A
C1361      C1362   1.408       .  A
C1361      O1367   1.323       .  A
C1362      C1363   1.407       .  A
C1362      H1373   1.082       .  S
C1363      C1372   1.367   1_655  A
C1363      C1364   1.380       .  A
C1364      C1365   1.407       .  A
C1364      O1370   1.322   1_655  A
C1365      C1366   1.406       .  A
C1365      H1374   1.082       .  S
C1366      C1369   1.366       .  A
O1367      C1368   1.334       .  A
C1368      C1369   1.393       .  A
C1369      H1375   1.082       .  S
O1370      C1371   1.333       .  A
C1371      C1372   1.394       .  A
C1372      H1376   1.082       .  S
C1377      C1382   1.380       .  A
C1377      C1378   1.408       .  A
C1377      O1383   1.324       .  A
C1378      C1379   1.408       .  A
C1378      H1389   1.082       .  S
C1379      C1388   1.366       .  A
C1379      C1380   1.380       .  A
C1380      C1381   1.404       .  A
C1380      O1386   1.321       .  A
C1381      C1382   1.403       .  A
C1381      H1390   1.082       .  S
C1382      C1385   1.362       .  A
O1383      C1384   1.333       .  A
C1384      C1385   1.391       .  A
C1385      H1391   1.082       .  S
O1386      C1387   1.331       .  A
C1387      C1388   1.395       .  A
C1388      H1392   1.082       .  S
C1393      C1398   1.380       .  A
C1393      C1394   1.406       .  A
C1393      O1399   1.321       .  A
C1394      C1395   1.405       .  A
C1394      H1405   1.082       .  S
C1395      C1404   1.365   1_556  A
C1395      C1396   1.380       .  A
C1396      C1397   1.406       .  A
C1396      O1402   1.321   1_556  A
C1397      C1398   1.405       .  A
C1397      H1406   1.082       .  S
C1398      C1401   1.366       .  A
O1399      C1400   1.332       .  A
C1400      C1401   1.393       .  A
C1401      H1407   1.082       .  S
O1402      C1403   1.332       .  A
C1403      C1404   1.393       .  A
C1404      H1408   1.082       .  S
C1409      C1414   1.380       .  A
C1409      C1410   1.408       .  A
C1409      O1415   1.325       .  A
C1410      C1411   1.409       .  A
C1410      H1421   1.082       .  S
C1411      C1420   1.367       .  A
C1411      C1412   1.380       .  A
C1412      C1413   1.406       .  A
C1412      O1418   1.323       .  A
C1413      C1414   1.406       .  A
C1413      H1422   1.082       .  S
C1414      C1417   1.364       .  A
O1415      C1416   1.334       .  A
C1416      C1417   1.393       .  A
C1417      H1423   1.082       .  S
O1418      C1419   1.333       .  A
C1419      C1420   1.395       .  A
C1420      H1424   1.082       .  S
C1425      C1430   1.380       .  A
C1425      C1426   1.405       .  A
C1425      O1431   1.323       .  A
C1426      C1427   1.405       .  A
C1426      H1437   1.082       .  S
C1427      C1436   1.363       .  A
C1427      C1428   1.380       .  A
C1428      C1429   1.405       .  A
C1428      O1434   1.322       .  A
C1429      C1430   1.405       .  A
C1429      H1438   1.082       .  S
C1430      C1433   1.362       .  A
O1431      C1432   1.332       .  A
C1432      C1433   1.392       .  A
C1433      H1439   1.082       .  S
O1434      C1435   1.332       .  A
C1435      C1436   1.392       .  A
C1436      H1440   1.082       .  S
C1441      C1446   1.380       .  A
C1441      C1442   1.407       .  A
C1441      O1447   1.324       .  A
C1442      C1443   1.408       .  A
C1442      H1453   1.082       .  S
C1443      C1452   1.365       .  A
C1443      C1444   1.381       .  A
C1444      C1445   1.400       .  A
C1444      O1450   1.317       .  A
C1445      C1446   1.400       .  A
C1445      H1454   1.082       .  S
C1446      C1449   1.356       .  A
O1447      C1448   1.333       .  A
C1448      C1449   1.390       .  A
C1449      H1455   1.082       .  S
O1450      C1451   1.329       .  A
C1451      C1452   1.394       .  A
C1452      H1456   1.082       .  S
C1457      C1462   1.381       .  A
C1457      C1458   1.404       .  A
C1457      O1463   1.321       .  A
C1458      C1459   1.405       .  A
C1458      H1469   1.082       .  S
C1459      C1468   1.362       .  A
C1459      C1460   1.381       .  A
C1460      C1461   1.402       .  A
C1460      O1466   1.319       .  A
C1461      C1462   1.402       .  A
C1461      H1470   1.082       .  S
C1462      C1465   1.359       .  A
O1463      C1464   1.331       .  A
C1464      C1465   1.391       .  A
C1465      H1471   1.082       .  S
O1466      C1467   1.330       .  A
C1467      C1468   1.392       .  A
C1468      H1472   1.082       .  S
C1473      C1478   1.381       .  A
C1473      C1474   1.401       .  A
C1473      O1479   1.317       .  A
C1474      C1475   1.400       .  A
C1474      H1485   1.082       .  S
C1475      C1484   1.357       .  A
C1475      C1476   1.381       .  A
C1476      C1477   1.406       .  A
C1476      O1482   1.323       .  A
C1477      C1478   1.407       .  A
C1477      H1486   1.082       .  S
C1478      C1481   1.365       .  A
O1479      C1480   1.329       .  A
C1480      C1481   1.393       .  A
C1481      H1487   1.082       .  S
O1482      C1483   1.332       .  A
C1483      C1484   1.390       .  A
C1484      H1488   1.082       .  S
C1489      C1494   1.380       .  A
C1489      C1490   1.408       .  A
C1489      O1495   1.322       .  A
C1490      C1491   1.407       .  A
C1490      H1501   1.082       .  S
C1491      C1500   1.367       .  A
C1491      C1492   1.380       .  A
C1492      C1493   1.405       .  A
C1492      O1498   1.320       .  A
C1493      C1494   1.404       .  A
C1493      H1502   1.082       .  S
C1494      C1497   1.365       .  A
O1495      C1496   1.333       .  A
C1496      C1497   1.391       .  A
C1497      H1503   1.082       .  S
O1498      C1499   1.331       .  A
C1499      C1500   1.394       .  A
C1500      H1504   1.082       .  S
C1505      C1510   1.380       .  A
C1505      C1506   1.406       .  A
C1505      O1511   1.321       .  A
C1506      C1507   1.405       .  A
C1506      H1517   1.082       .  S
C1507      C1516   1.365       .  A
C1507      C1508   1.380       .  A
C1508      C1509   1.405       .  A
C1508      O1514   1.320       .  A
C1509      C1510   1.404       .  A
C1509      H1518   1.082       .  S
C1510      C1513   1.364       .  A
O1511      C1512   1.332       .  A
C1512      C1513   1.392       .  A
C1513      H1519   1.082       .  S
O1514      C1515   1.332       .  A
C1515      C1516   1.393       .  A
C1516      H1520   1.082       .  S
C1521      C1526   1.380       .  A
C1521      C1522   1.406       .  A
C1521      O1527   1.324       .  A
C1522      C1523   1.407       .  A
C1522      H1533   1.082       .  S
C1523      C1532   1.364       .  A
C1523      C1524   1.381       .  A
C1524      C1525   1.400       .  A
C1524      O1530   1.317       .  A
C1525      C1526   1.400       .  A
C1525      H1534   1.082       .  S
C1526      C1529   1.357       .  A
O1527      C1528   1.332       .  A
C1528      C1529   1.390       .  A
C1529      H1535   1.082       .  S
O1530      C1531   1.329       .  A
C1531      C1532   1.393       .  A
C1532      H1536   1.082       .  S
C1537      C1542   1.380       .  A
C1537      C1538   1.407       .  A
C1537      O1543   1.325       .  A
C1538      C1539   1.408       .  A
C1538      H1549   1.082       .  S
C1539      C1548   1.365       .  A
C1539      C1540   1.381       .  A
C1540      C1541   1.400       .  A
C1540      O1546   1.318       .  A
C1541      C1542   1.400       .  A
C1541      H1550   1.082       .  S
C1542      C1545   1.356       .  A
O1543      C1544   1.333       .  A
C1544      C1545   1.390       .  A
C1545      H1551   1.082       .  S
O1546      C1547   1.329       .  A
C1547      C1548   1.394       .  A
C1548      H1552   1.082       .  S
C1553      C1558   1.380       .  A
C1553      C1554   1.407       .  A
C1553      O1559   1.322       .  A
C1554      C1555   1.406       .  A
C1554      H1565   1.082       .  S
C1555      C1564   1.366       .  A
C1555      C1556   1.380       .  A
C1556      C1557   1.403       .  A
C1556      O1562   1.319       .  A
C1557      C1558   1.402       .  A
C1557      H1566   1.082       .  S
C1558      C1561   1.361       .  A
O1559      C1560   1.333       .  A
C1560      C1561   1.390       .  A
C1561      H1567   1.082       .  S
O1562      C1563   1.330       .  A
C1563      C1564   1.393       .  A
C1564      H1568   1.082       .  S
C1569      C1574   1.380       .  A
C1569      C1570   1.403       .  A
C1569      O1575   1.317       .  A
C1570      C1571   1.401       .  A
C1570      H1581   1.082       .  S
C1571      C1580   1.363       .  A
C1571      C1572   1.380       .  A
C1572      C1573   1.405       .  A
C1572      O1578   1.318       .  A
C1573      C1574   1.404       .  A
C1573      H1582   1.082       .  S
C1574      C1577   1.367       .  A
O1575      C1576   1.330       .  A
C1576      C1577   1.392       .  A
C1577      H1583   1.082       .  S
O1578      C1579   1.331       .  A
C1579      C1580   1.390       .  A
C1580      H1584   1.082       .  S
C1585      C1590   1.381       .  A
C1585      C1586   1.405       .  A
C1585      O1591   1.324       .  A
C1586      C1587   1.406       .  A
C1586      H1597   1.082       .  S
C1587      C1596   1.363   1_655  A
C1587      C1588   1.381       .  A
C1588      C1589   1.400       .  A
C1588      O1594   1.318       .  A
C1589      C1590   1.400       .  A
C1589      H1598   1.082       .  S
C1590      C1593   1.356       .  A
O1591      C1592   1.332       .  A
C1592      C1593   1.390       .  A
C1593      H1599   1.082       .  S
O1594      C1595   1.329   1_655  A
C1595      C1596   1.391       .  A
C1596      H1600   1.082       .  S
C1601      C1606   1.380       .  A
C1601      C1602   1.406       .  A
C1601      O1607   1.323       .  A
C1602      C1603   1.406       .  A
C1602      H1613   1.082       .  S
C1603      C1612   1.364       .  A
C1603      C1604   1.380       .  A
C1604      C1605   1.404       .  A
C1604      O1610   1.321       .  A
C1605      C1606   1.404       .  A
C1605      H1614   1.082       .  S
C1606      C1609   1.362       .  A
O1607      C1608   1.333       .  A
C1608      C1609   1.392       .  A
C1609      H1615   1.082       .  S
O1610      C1611   1.331       .  A
C1611      C1612   1.393       .  A
C1612      H1616   1.082       .  S
C1617      C1622   1.380       .  A
C1617      C1618   1.405       .  A
C1617      O1623   1.323       .  A
C1618      C1619   1.406       .  A
C1618      H1629   1.082       .  S
C1619      C1628   1.363       .  A
C1619      C1620   1.380       .  A
C1620      C1621   1.407       .  A
C1620      O1626   1.324       .  A
C1621      C1622   1.407       .  A
C1621      H1630   1.082       .  S
C1622      C1625   1.364       .  A
O1623      C1624   1.332       .  A
C1624      C1625   1.394       .  A
C1625      H1631   1.082       .  S
O1626      C1627   1.333       .  A
C1627      C1628   1.393       .  A
C1628      H1632   1.082       .  S
C1633      C1638   1.381       .  A
C1633      C1634   1.399       .  A
C1633      O1639   1.314       .  A
C1634      C1635   1.398       .  A
C1634      H1645   1.082       .  S
C1635      C1644   1.358       .  A
C1635      C1636   1.381       .  A
C1636      C1637   1.407       .  A
C1636      O1642   1.320       .  A
C1637      C1638   1.406       .  A
C1637      H1646   1.082       .  S
C1638      C1641   1.368       .  A
O1639      C1640   1.328       .  A
C1640      C1641   1.392       .  A
C1641      H1647   1.082       .  S
O1642      C1643   1.332       .  A
C1643      C1644   1.388       .  A
C1644      H1648   1.082       .  S
C1649      C1654   1.380       .  A
C1649      C1650   1.402       .  A
C1649      O1655   1.316   1_655  A
C1650      C1651   1.401       .  A
C1650      H1661   1.082       .  S
C1651      C1660   1.361       .  A
C1651      C1652   1.380       .  A
C1652      C1653   1.407       .  A
C1652      O1658   1.320       .  A
C1653      C1654   1.405       .  A
C1653      H1662   1.082       .  S
C1654      C1657   1.367       .  A
O1655      C1656   1.330       .  A
C1656      C1657   1.392   1_455  A
C1657      H1663   1.082       .  S
O1658      C1659   1.332       .  A
C1659      C1660   1.390       .  A
C1660      H1664   1.082       .  S
C1665      C1670   1.380       .  A
C1665      C1666   1.409   1_545  A
C1665      O1671   1.324       .  A
C1666      C1667   1.408       .  A
C1666      H1677   1.082       .  S
C1667      C1676   1.368       .  A
C1667      C1668   1.380       .  A
C1668      C1669   1.405   1_565  A
C1668      O1674   1.321       .  A
C1669      C1670   1.405       .  A
C1669      H1678   1.082       .  S
C1670      C1673   1.364       .  A
O1671      C1672   1.334       .  A
C1672      C1673   1.393       .  A
C1673      H1679   1.082       .  S
O1674      C1675   1.332       .  A
C1675      C1676   1.395       .  A
C1676      H1680   1.082       .  S
C1681      C1686   1.380       .  A
C1681      C1682   1.404       .  A
C1681      O1687   1.322       .  A
C1682      C1683   1.404       .  A
C1682      H1693   1.082       .  S
C1683      C1692   1.361       .  A
C1683      C1684   1.380       .  A
C1684      C1685   1.405       .  A
C1684      O1690   1.322       .  A
C1685      C1686   1.405       .  A
C1685      H1694   1.082       .  S
C1686      C1689   1.363       .  A
O1687      C1688   1.331       .  A
C1688      C1689   1.393       .  A
C1689      H1695   1.082       .  S
O1690      C1691   1.332       .  A
C1691      C1692   1.391       .  A
C1692      H1696   1.082       .  S
C1697      C1702   1.380       .  A
C1697      C1698   1.406       .  A
C1697      O1703   1.321       .  A
C1698      C1699   1.405       .  A
C1698      H1709   1.082       .  S
C1699      C1708   1.365       .  A
C1699      C1700   1.380       .  A
C1700      C1701   1.408       .  A
C1700      O1706   1.323   1_556  A
C1701      C1702   1.407       .  A
C1701      H1710   1.082       .  S
C1702      C1705   1.368       .  A
O1703      C1704   1.332       .  A
C1704      C1705   1.394       .  A
C1705      H1711   1.082       .  S
O1706      C1707   1.333       .  A
C1707      C1708   1.392   1_554  A
C1708      H1712   1.082       .  S
C1713      C1718   1.380       .  A
C1713      C1714   1.406       .  A
C1713      O1719   1.323       .  A
C1714      C1715   1.407       .  A
C1714      H1725   1.082       .  S
C1715      C1724   1.365       .  A
C1715      C1716   1.380       .  A
C1716      C1717   1.404       .  A
C1716      O1722   1.320       .  A
C1717      C1718   1.404       .  A
C1717      H1726   1.082       .  S
C1718      C1721   1.361       .  A
O1719      C1720   1.332       .  A
C1720      C1721   1.392       .  A
C1721      H1727   1.082       .  S
O1722      C1723   1.331       .  A
C1723      C1724   1.393       .  A
C1724      H1728   1.082       .  S
C1729      C1734   1.379       .  A
C1729      C1730   1.411       .  A
C1729      O1735   1.324       .  A
C1730      C1731   1.410       .  A
C1730      H1741   1.082       .  S
C1731      C1740   1.371   1_655  A
C1731      C1732   1.379   1_655  A
C1732      C1733   1.407   1_455  A
C1732      O1738   1.322       .  A
C1733      C1734   1.406       .  A
C1733      H1742   1.082       .  S
C1734      C1737   1.368       .  A
O1735      C1736   1.335       .  A
C1736      C1737   1.394       .  A
C1737      H1743   1.082       .  S
O1738      C1739   1.333       .  A
C1739      C1740   1.396       .  A
C1740      H1744   1.082       .  S
C1745      C1750   1.380       .  A
C1745      C1746   1.405       .  A
C1745      O1751   1.321       .  A
C1746      C1747   1.404       .  A
C1746      H1757   1.082       .  S
C1747      C1756   1.363       .  A
C1747      C1748   1.380       .  A
C1748      C1749   1.406       .  A
C1748      O1754   1.322       .  A
C1749      C1750   1.406       .  A
C1749      H1758   1.082       .  S
C1750      C1753   1.365       .  A
O1751      C1752   1.331       .  A
C1752      C1753   1.393       .  A
C1753      H1759   1.082       .  S
O1754      C1755   1.332       .  A
C1755      C1756   1.392       .  A
C1756      H1760   1.082       .  S
C1761      C1766   1.380       .  A
C1761      C1762   1.408       .  A
C1761      O1767   1.322       .  A
C1762      C1763   1.406       .  A
C1762      H1773   1.082       .  S
C1763      C1772   1.367       .  A
C1763      C1764   1.380       .  A
C1764      C1765   1.400       .  A
C1764      O1770   1.315       .  A
C1765      C1766   1.399       .  A
C1765      H1774   1.082       .  S
C1766      C1769   1.358       .  A
O1767      C1768   1.333       .  A
C1768      C1769   1.389       .  A
C1769      H1775   1.082       .  S
O1770      C1771   1.329       .  A
C1771      C1772   1.393       .  A
C1772      H1776   1.082       .  S
C1777      C1782   1.380       .  A
C1777      C1778   1.409       .  A
C1777      O1783   1.323       .  A
C1778      C1779   1.408       .  A
C1778      H1789   1.082       .  S
C1779      C1788   1.370       .  A
C1779      C1780   1.380       .  A
C1780      C1781   1.406       .  A
C1780      O1786   1.320       .  A
C1781      C1782   1.404       .  A
C1781      H1790   1.082       .  S
C1782      C1785   1.364       .  A
O1783      C1784   1.334       .  A
C1784      C1785   1.391       .  A
C1785      H1791   1.082       .  S
O1786      C1787   1.333       .  A
C1787      C1788   1.395       .  A
C1788      H1792   1.082       .  S
C1793      C1798   1.381       .  A
C1793      C1794   1.401       .  A
C1793      O1799   1.320       .  A
C1794      C1795   1.402       .  A
C1794      H1805   1.082       .  S
C1795      C1804   1.357       .  A
C1795      C1796   1.381       .  A
C1796      C1797   1.406       .  A
C1796      O1802   1.324       .  A
C1797      C1798   1.407       .  A
C1797      H1806   1.082       .  S
C1798      C1801   1.363       .  A
O1799      C1800   1.330       .  A
C1800      C1801   1.393       .  A
C1801      H1807   1.082       .  S
O1802      C1803   1.332       .  A
C1803      C1804   1.390       .  A
C1804      H1808   1.082       .  S
C1809      C1814   1.381       .  A
C1809      C1810   1.407       .  A
C1809      O1815   1.324       .  A
C1810      C1811   1.407       .  A
C1810      H1821   1.082       .  S
C1811      C1820   1.365   1_565  A
C1811      C1812   1.381       .  A
C1812      C1813   1.401       .  A
C1812      O1818   1.318       .  A
C1813      C1814   1.401       .  A
C1813      H1822   1.082       .  S
C1814      C1817   1.358       .  A
O1815      C1816   1.332       .  A
C1816      C1817   1.391       .  A
C1817      H1823   1.083       .  S
O1818      C1819   1.330   1_565  A
C1819      C1820   1.393       .  A
C1820      H1824   1.082       .  S
C1825      C1830   1.380       .  A
C1825      C1826   1.408   1_554  A
C1825      O1831   1.324       .  A
C1826      C1827   1.408       .  A
C1826      H1837   1.082       .  S
C1827      C1836   1.367       .  A
C1827      C1828   1.380       .  A
C1828      C1829   1.408   1_556  A
C1828      O1834   1.324       .  A
C1829      C1830   1.407       .  A
C1829      H1838   1.082       .  S
C1830      C1833   1.367       .  A
O1831      C1832   1.333       .  A
C1832      C1833   1.394       .  A
C1833      H1839   1.082       .  S
O1834      C1835   1.334       .  A
C1835      C1836   1.394       .  A
C1836      H1840   1.082       .  S
C1841      C1846   1.380       .  A
C1841      C1842   1.406       .  A
C1841      O1847   1.321       .  A
C1842      C1843   1.405       .  A
C1842      H1853   1.082       .  S
C1843      C1852   1.365       .  A
C1843      C1844   1.380       .  A
C1844      C1845   1.404       .  A
C1844      O1850   1.320       .  A
C1845      C1846   1.403       .  A
C1845      H1854   1.082       .  S
C1846      C1849   1.363       .  A
O1847      C1848   1.332       .  A
C1848      C1849   1.391       .  A
C1849      H1855   1.082       .  S
O1850      C1851   1.331       .  A
C1851      C1852   1.392       .  A
C1852      H1856   1.082       .  S
C1857      C1862   1.380       .  A
C1857      C1858   1.404       .  A
C1857      O1863   1.322       .  A
C1858      C1859   1.404       .  A
C1858      H1869   1.082       .  S
C1859      C1868   1.362       .  A
C1859      C1860   1.380       .  A
C1860      C1861   1.409       .  A
C1860      O1866   1.325       .  A
C1861      C1862   1.409       .  A
C1861      H1870   1.082       .  S
C1862      C1865   1.367       .  A
O1863      C1864   1.331       .  A
C1864      C1865   1.395       .  A
C1865      H1871   1.082       .  S
O1866      C1867   1.334       .  A
C1867      C1868   1.392       .  A
C1868      H1872   1.082       .  S
C1873      C1878   1.380       .  A
C1873      C1874   1.402       .  A
C1873      O1879   1.315       .  A
C1874      C1875   1.400       .  A
C1874      H1885   1.082       .  S
C1875      C1884   1.362       .  A
C1875      C1876   1.380       .  A
C1876      C1877   1.406       .  A
C1876      O1882   1.319       .  A
C1877      C1878   1.404       .  A
C1877      H1886   1.082       .  S
C1878      C1881   1.368       .  A
O1879      C1880   1.330       .  A
C1880      C1881   1.392       .  A
C1881      H1887   1.082       .  S
O1882      C1883   1.332       .  A
C1883      C1884   1.390       .  A
C1884      H1888   1.083       .  S
C1889      C1894   1.380       .  A
C1889      C1890   1.406       .  A
C1889      O1895   1.323       .  A
C1890      C1891   1.407       .  A
C1890      H1901   1.082       .  S
C1891      C1900   1.364       .  A
C1891      C1892   1.380       .  A
C1892      C1893   1.403       .  A
C1892      O1898   1.321       .  A
C1893      C1894   1.403       .  A
C1893      H1902   1.082       .  S
C1894      C1897   1.360       .  A
O1895      C1896   1.332       .  A
C1896      C1897   1.391       .  A
C1897      H1903   1.082       .  S
O1898      C1899   1.331       .  A
C1899      C1900   1.393       .  A
C1900      H1904   1.082       .  S
C1905      C1910   1.380       .  A
C1905      C1906   1.407       .  A
C1905      O1911   1.321       .  A
C1906      C1907   1.405       .  A
C1906      H1917   1.082       .  S
C1907      C1916   1.367       .  A
C1907      C1908   1.380       .  A
C1908      C1909   1.403       .  A
C1908      O1914   1.316       .  A
C1909      C1910   1.401       .  A
C1909      H1918   1.082       .  S
C1910      C1913   1.362       .  A
O1911      C1912   1.332       .  A
C1912      C1913   1.391       .  A
C1913      H1919   1.082       .  S
O1914      C1915   1.330   1_565  A
C1915      C1916   1.392   1_545  A
C1916      H1920   1.082       .  S
C1921      C1926   1.380       .  A
C1921      C1922   1.407       .  A
C1921      O1927   1.325       .  A
C1922      C1923   1.408       .  A
C1922      H1933   1.082       .  S
C1923      C1932   1.365       .  A
C1923      C1924   1.380       .  A
C1924      C1925   1.403       .  A
C1924      O1930   1.321       .  A
C1925      C1926   1.403       .  A
C1925      H1934   1.082       .  S
C1926      C1929   1.360       .  A
O1927      C1928   1.333       .  A
C1928      C1929   1.391       .  A
C1929      H1935   1.082       .  S
O1930      C1931   1.331       .  A
C1931      C1932   1.394       .  A
C1932      H1936   1.082       .  S
C1937      C1942   1.381       .  A
C1937      C1938   1.405       .  A
C1937      O1943   1.322       .  A
C1938      C1939   1.406       .  A
C1938      H1949   1.082       .  S
C1939      C1948   1.365       .  A
C1939      C1940   1.381       .  A
C1940      C1941   1.401       .  A
C1940      O1946   1.318       .  A
C1941      C1942   1.401       .  A
C1941      H1950   1.082       .  S
C1942      C1945   1.358       .  A
O1943      C1944   1.331       .  A
C1944      C1945   1.390       .  A
C1945      H1951   1.083       .  S
O1946      C1947   1.329       .  A
C1947      C1948   1.393       .  A
C1948      H1952   1.082       .  S
C1953      C1958   1.380       .  A
C1953      C1954   1.402       .  A
C1953      O1959   1.316       .  A
C1954      C1955   1.401       .  A
C1954      H1965   1.082       .  S
C1955      C1964   1.361       .  A
C1955      C1956   1.380       .  A
C1956      C1957   1.407       .  A
C1956      O1962   1.321       .  A
C1957      C1958   1.406       .  A
C1957      H1966   1.082       .  S
C1958      C1961   1.367       .  A
O1959      C1960   1.330       .  A
C1960      C1961   1.392       .  A
C1961      H1967   1.082       .  S
O1962      C1963   1.333       .  A
C1963      C1964   1.391       .  A
C1964      H1968   1.082       .  S
C1969      C1974   1.380       .  A
C1969      C1970   1.407       .  A
C1969      O1975   1.321       .  A
C1970      C1971   1.406       .  A
C1970      H1981   1.082       .  S
C1971      C1980   1.366       .  A
C1971      C1972   1.380       .  A
C1972      C1973   1.406       .  A
C1972      O1978   1.322       .  A
C1973      C1974   1.405       .  A
C1973      H1982   1.082       .  S
C1974      C1977   1.366       .  A
O1975      C1976   1.333       .  A
C1976      C1977   1.392       .  A
C1977      H1983   1.082       .  S
O1978      C1979   1.332       .  A
C1979      C1980   1.394       .  A
C1980      H1984   1.082       .  S
C1985      C1990   1.380       .  A
C1985      C1986   1.403       .  A
C1985      O1991   1.318       .  A
C1986      C1987   1.402       .  A
C1986      H1997   1.082       .  S
C1987      C1996   1.363       .  A
C1987      C1988   1.379       .  A
C1988      C1989   1.411       .  A
C1988      O1994   1.324       .  A
C1989      C1990   1.409       .  A
C1989      H1998   1.082       .  S
C1990      C1993   1.371       .  A
O1991      C1992   1.330       .  A
C1992      C1993   1.395       .  A
C1993      H1999   1.082       .  S
O1994      C1995   1.335       .  A
C1995      C1996   1.391       .  A
C1996      H2000   1.082       .  S
C2001      C2006   1.380       .  A
C2001      C2002   1.404       .  A
C2001      O2007   1.320       .  A
C2002      C2003   1.404       .  A
C2002      H2013   1.082       .  S
C2003      C2012   1.362       .  A
C2003      C2004   1.380       .  A
C2004      C2005   1.405       .  A
C2004      O2010   1.321       .  A
C2005      C2006   1.405       .  A
C2005      H2014   1.082       .  S
C2006      C2009   1.364       .  A
O2007      C2008   1.331       .  A
C2008      C2009   1.393       .  A
C2009      H2015   1.082       .  S
O2010      C2011   1.332       .  A
C2011      C2012   1.392       .  A
C2012      H2016   1.082       .  S
C2017      C2022   1.380       .  A
C2017      C2018   1.404       .  A
C2017      O2023   1.321       .  A
C2018      C2019   1.404       .  A
C2018      H2029   1.082       .  S
C2019      C2028   1.363   1_655  A
C2019      C2020   1.380       .  A
C2020      C2021   1.410       .  A
C2020      O2026   1.326   1_655  A
C2021      C2022   1.410       .  A
C2021      H2030   1.082       .  S
C2022      C2025   1.369       .  A
O2023      C2024   1.331       .  A
C2024      C2025   1.396       .  A
C2025      H2031   1.082       .  S
O2026      C2027   1.335       .  A
C2027      C2028   1.392       .  A
C2028      H2032   1.082       .  S
C2033      C2038   1.381       .  A
C2033      C2034   1.405       .  A
C2033      O2039   1.322       .  A
C2034      C2035   1.406       .  A
C2034      H2045   1.082       .  S
C2035      C2044   1.363       .  A
C2035      C2036   1.381       .  A
C2036      C2037   1.400       .  A
C2036      O2042   1.318       .  A
C2037      C2038   1.400       .  A
C2037      H2046   1.082       .  S
C2038      C2041   1.357       .  A
O2039      C2040   1.332       .  A
C2040      C2041   1.390       .  A
C2041      H2047   1.083       .  S
O2042      C2043   1.329       .  A
C2043      C2044   1.393       .  A
C2044      H2048   1.082       .  S
C2049      C2054   1.380       .  A
C2049      C2050   1.406       .  A
C2049      O2055   1.322       .  A
C2050      C2051   1.405       .  A
C2050      H2061   1.082       .  S
C2051      C2060   1.364       .  A
C2051      C2052   1.380       .  A
C2052      C2053   1.408       .  A
C2052      O2058   1.324       .  A
C2053      C2054   1.408       .  A
C2053      H2062   1.082       .  S
C2054      C2057   1.367   1_565  A
O2055      C2056   1.332   1_565  A
C2056      C2057   1.395       .  A
C2057      H2063   1.082       .  S
O2058      C2059   1.334       .  A
C2059      C2060   1.393       .  A
C2060      H2064   1.082       .  S
C2065      C2070   1.380       .  A
C2065      C2066   1.404       .  A
C2065      O2071   1.321       .  A
C2066      C2067   1.404       .  A
C2066      H2077   1.082       .  S
C2067      C2076   1.360       .  A
C2067      C2068   1.380       .  A
C2068      C2069   1.406       .  A
C2068      O2074   1.323       .  A
C2069      C2070   1.406       .  A
C2069      H2078   1.082       .  S
C2070      C2073   1.363       .  A
O2071      C2072   1.331       .  A
C2072      C2073   1.392       .  A
C2073      H2079   1.082       .  S
O2074      C2075   1.332       .  A
C2075      C2076   1.392       .  A
C2076      H2080   1.082       .  S
C2081      C2086   1.381       .  A
C2081      C2082   1.401       .  A
C2081      O2087   1.318       .  A
C2082      C2083   1.401   1_554  A
C2082      H2093   1.082       .  S
C2083      C2092   1.358       .  A
C2083      C2084   1.380       .  A
C2084      C2085   1.407   1_556  A
C2084      O2090   1.324       .  A
C2085      C2086   1.408       .  A
C2085      H2094   1.082       .  S
C2086      C2089   1.366       .  A
O2087      C2088   1.330       .  A
C2088      C2089   1.394       .  A
C2089      H2095   1.082       .  S
O2090      C2091   1.332       .  A
C2091      C2092   1.390       .  A
C2092      H2096   1.082       .  S
C2097      C2102   1.380       .  A
C2097      C2098   1.406       .  A
C2097      O2103   1.322       .  A
C2098      C2099   1.406       .  A
C2098      H2109   1.082       .  S
C2099      C2108   1.364       .  A
C2099      C2100   1.380       .  A
C2100      C2101   1.405       .  A
C2100      O2106   1.321       .  A
C2101      C2102   1.404       .  A
C2101      H2110   1.082       .  S
C2102      C2105   1.362       .  A
O2103      C2104   1.332       .  A
C2104      C2105   1.392       .  A
C2105      H2111   1.082       .  S
O2106      C2107   1.331       .  A
C2107      C2108   1.393       .  A
C2108      H2112   1.082       .  S
C2113      C2118   1.380       .  A
C2113      C2114   1.405       .  A
C2113      O2119   1.318   1_554  A
C2114      C2115   1.403       .  A
C2114      H2125   1.082       .  S
C2115      C2124   1.364       .  A
C2115      C2116   1.380       .  A
C2116      C2117   1.408       .  A
C2116      O2122   1.321       .  A
C2117      C2118   1.406       .  A
C2117      H2126   1.082       .  S
C2118      C2121   1.369   1_554  A
O2119      C2120   1.332       .  A
C2120      C2121   1.393       .  A
C2121      H2127   1.082       .  S
O2122      C2123   1.333       .  A
C2123      C2124   1.392       .  A
C2124      H2128   1.082       .  S
C2129      C2134   1.380       .  A
C2129      C2130   1.406       .  A
C2129      O2135   1.320       .  A
C2130      C2131   1.405       .  A
C2130      H2141   1.082       .  S
C2131      C2140   1.366       .  A
C2131      C2132   1.380       .  A
C2132      C2133   1.404       .  A
C2132      O2138   1.318       .  A
C2133      C2134   1.403       .  A
C2133      H2142   1.082       .  S
C2134      C2137   1.365       .  A
O2135      C2136   1.332       .  A
C2136      C2137   1.392       .  A
C2137      H2143   1.082       .  S
O2138      C2139   1.331       .  A
C2139      C2140   1.392       .  A
C2140      H2144   1.082       .  S
C2145      C2150   1.380       .  A
C2145      C2146   1.408       .  A
C2145      O2151   1.321       .  A
C2146      C2147   1.407       .  A
C2146      H2157   1.082       .  S
C2147      C2156   1.369       .  A
C2147      C2148   1.380       .  A
C2148      C2149   1.399       .  A
C2148      O2154   1.314       .  A
C2149      C2150   1.398       .  A
C2149      H2158   1.082       .  S
C2150      C2153   1.358       .  A
O2151      C2152   1.333       .  A
C2152      C2153   1.388       .  A
C2153      H2159   1.082       .  S
O2154      C2155   1.328       .  A
C2155      C2156   1.393       .  A
C2156      H2160   1.082       .  S
C2161      C2166   1.380       .  A
C2161      C2162   1.406       .  A
C2161      O2167   1.322       .  A
C2162      C2163   1.406       .  A
C2162      H2173   1.082       .  S
C2163      C2172   1.363       .  A
C2163      C2164   1.380       .  A
C2164      C2165   1.404       .  A
C2164      O2170   1.322       .  A
C2165      C2166   1.404       .  A
C2165      H2174   1.082       .  S
C2166      C2169   1.363       .  A
O2167      C2168   1.332       .  A
C2168      C2169   1.391       .  A
C2169      H2175   1.082       .  S
O2170      C2171   1.331       .  A
C2171      C2172   1.393       .  A
C2172      H2176   1.083       .  S
C2177      C2182   1.380       .  A
C2177      C2178   1.407       .  A
C2177      O2183   1.325       .  A
C2178      C2179   1.408       .  A
C2178      H2189   1.082       .  S
C2179      C2188   1.364       .  A
C2179      C2180   1.381       .  A
C2180      C2181   1.400       .  A
C2180      O2186   1.319       .  A
C2181      C2182   1.400       .  A
C2181      H2190   1.082       .  S
C2182      C2185   1.355       .  A
O2183      C2184   1.333       .  A
C2184      C2185   1.389       .  A
C2185      H2191   1.083       .  S
O2186      C2187   1.329       .  A
C2187      C2188   1.394       .  A
C2188      H2192   1.082       .  S
C2193      C2198   1.381       .  A
C2193      C2194   1.402       .  A
C2193      O2199   1.320       .  A
C2194      C2195   1.402       .  A
C2194      H2205   1.082       .  S
C2195      C2204   1.358       .  A
C2195      C2196   1.380       .  A
C2196      C2197   1.405       .  A
C2196      O2202   1.323       .  A
C2197      C2198   1.406       .  A
C2197      H2206   1.082       .  S
C2198      C2201   1.362       .  A
O2199      C2200   1.330       .  A
C2200      C2201   1.393       .  A
C2201      H2207   1.082       .  S
O2202      C2203   1.332       .  A
C2203      C2204   1.391       .  A
C2204      H2208   1.082       .  S
C2209      C2214   1.381       .  A
C2209      C2210   1.400       .  A
C2209      O2215   1.318       .  A
C2210      C2211   1.400       .  A
C2210      H2221   1.082       .  S
C2211      C2220   1.357       .  A
C2211      C2212   1.380       .  A
C2212      C2213   1.407       .  A
C2212      O2218   1.323       .  A
C2213      C2214   1.407       .  A
C2213      H2222   1.082       .  S
C2214      C2217   1.365       .  A
O2215      C2216   1.329       .  A
C2216      C2217   1.394       .  A
C2217      H2223   1.082       .  S
O2218      C2219   1.332       .  A
C2219      C2220   1.390       .  A
C2220      H2224   1.083       .  S
C2225      C2230   1.380       .  A
C2225      C2226   1.408   1_554  A
C2225      O2231   1.323       .  A
C2226      C2227   1.408       .  A
C2226      H2237   1.082       .  S
C2227      C2236   1.368       .  A
C2227      C2228   1.380       .  A
C2228      C2229   1.407       .  A
C2228      O2234   1.322       .  A
C2229      C2230   1.406   1_556  A
C2229      H2238   1.082       .  S
C2230      C2233   1.366       .  A
O2231      C2232   1.334       .  A
C2232      C2233   1.393       .  A
C2233      H2239   1.082       .  S
O2234      C2235   1.333       .  A
C2235      C2236   1.394       .  A
C2236      H2240   1.082       .  S
C2241      C2246   1.380       .  A
C2241      C2242   1.407       .  A
C2241      O2247   1.323       .  A
C2242      C2243   1.406       .  A
C2242      H2253   1.082       .  S
C2243      C2252   1.366       .  A
C2243      C2244   1.380       .  A
C2244      C2245   1.408       .  A
C2244      O2250   1.323       .  A
C2245      C2246   1.407       .  A
C2245      H2254   1.082       .  S
C2246      C2249   1.367       .  A
O2247      C2248   1.333       .  A
C2248      C2249   1.394       .  A
C2249      H2255   1.082       .  S
O2250      C2251   1.334       .  A
C2251      C2252   1.393       .  A
C2252      H2256   1.082       .  S
C2257      C2262   1.381       .  A
C2257      C2258   1.404       .  A
C2257      O2263   1.322       .  A
C2258      C2259   1.404       .  A
C2258      H2269   1.082       .  S
C2259      C2268   1.361       .  A
C2259      C2260   1.380       .  A
C2260      C2261   1.405       .  A
C2260      O2266   1.322       .  A
C2261      C2262   1.405       .  A
C2261      H2270   1.082       .  S
C2262      C2265   1.361       .  A
O2263      C2264   1.331       .  A
C2264      C2265   1.392       .  A
C2265      H2271   1.082       .  S
O2266      C2267   1.332       .  A
C2267      C2268   1.392       .  A
C2268      H2272   1.082       .  S
C2273      C2278   1.381       .  A
C2273      C2274   1.405       .  A
C2273      O2279   1.322       .  A
C2274      C2275   1.406       .  A
C2274      H2285   1.082       .  S
C2275      C2284   1.364       .  A
C2275      C2276   1.381       .  A
C2276      C2277   1.401       .  A
C2276      O2282   1.318       .  A
C2277      C2278   1.401       .  A
C2277      H2286   1.082       .  S
C2278      C2281   1.358       .  A
O2279      C2280   1.331       .  A
C2280      C2281   1.390       .  A
C2281      H2287   1.083       .  S
O2282      C2283   1.330       .  A
C2283      C2284   1.393       .  A
C2284      H2288   1.082       .  S
C2289      C2294   1.380       .  A
C2289      C2290   1.407       .  A
C2289      O2295   1.324       .  A
C2290      C2291   1.407       .  A
C2290      H2301   1.082       .  S
C2291      C2300   1.365       .  A
C2291      C2292   1.380       .  A
C2292      C2293   1.405       .  A
C2292      O2298   1.322       .  A
C2293      C2294   1.405       .  A
C2293      H2302   1.082       .  S
C2294      C2297   1.363       .  A
O2295      C2296   1.333       .  A
C2296      C2297   1.392       .  A
C2297      H2303   1.082       .  S
O2298      C2299   1.332       .  A
C2299      C2300   1.394       .  A
C2300      H2304   1.082       .  S
C2305      C2310   1.380       .  A
C2305      C2306   1.404       .  A
C2305      O2311   1.319       .  A
C2306      C2307   1.402       .  A
C2306      H2317   1.082       .  S
C2307      C2316   1.363       .  A
C2307      C2308   1.380       .  A
C2308      C2309   1.406       .  A
C2308      O2314   1.320       .  A
C2309      C2310   1.405       .  A
C2309      H2318   1.082       .  S
C2310      C2313   1.365       .  A
O2311      C2312   1.331       .  A
C2312      C2313   1.393       .  A
C2313      H2319   1.082       .  S
O2314      C2315   1.332       .  A
C2315      C2316   1.390       .  A
C2316      H2320   1.082       .  S
C2321      C2326   1.380       .  A
C2321      C2322   1.404   1_655  A
C2321      O2327   1.321       .  A
C2322      C2323   1.404       .  A
C2322      H2333   1.082       .  S
C2323      C2332   1.363       .  A
C2323      C2324   1.379       .  A
C2324      C2325   1.410       .  A
C2324      O2330   1.325       .  A
C2325      C2326   1.409   1_455  A
C2325      H2334   1.082       .  S
C2326      C2329   1.368       .  A
O2327      C2328   1.331       .  A
C2328      C2329   1.396       .  A
C2329      H2335   1.082       .  S
O2330      C2331   1.335       .  A
C2331      C2332   1.392       .  A
C2332      H2336   1.082       .  S
C2337      C2342   1.380       .  A
C2337      C2338   1.402       .  A
C2337      O2343   1.316       .  A
C2338      C2339   1.400       .  A
C2338      H2349   1.082       .  S
C2339      C2348   1.361       .  A
C2339      C2340   1.380       .  A
C2340      C2341   1.409       .  A
C2340      O2346   1.322       .  A
C2341      C2342   1.407       .  A
C2341      H2350   1.082       .  S
C2342      C2345   1.370       .  A
O2343      C2344   1.330       .  A
C2344      C2345   1.394       .  A
C2345      H2351   1.082       .  S
O2346      C2347   1.333       .  A
C2347      C2348   1.390       .  A
C2348      H2352   1.083       .  S
C2353      C2358   1.380       .  A
C2353      C2354   1.406       .  A
C2353      O2359   1.323       .  A
C2354      C2355   1.406       .  A
C2354      H2365   1.082       .  S
C2355      C2364   1.365   1_565  A
C2355      C2356   1.380   1_565  A
C2356      C2357   1.409   1_545  A
C2356      O2362   1.324       .  A
C2357      C2358   1.408       .  A
C2357      H2366   1.082       .  S
C2358      C2361   1.367       .  A
O2359      C2360   1.333       .  A
C2360      C2361   1.394       .  A
C2361      H2367   1.082       .  S
O2362      C2363   1.335       .  A
C2363      C2364   1.392       .  A
C2364      H2368   1.082       .  S
C2369      C2374   1.380       .  A
C2369      C2370   1.405       .  A
C2369      O2375   1.319       .  A
C2370      C2371   1.403       .  A
C2370      H2381   1.082       .  S
C2371      C2380   1.365       .  A
C2371      C2372   1.380       .  A
C2372      C2373   1.404       .  A
C2372      O2378   1.318       .  A
C2373      C2374   1.403       .  A
C2373      H2382   1.082       .  S
C2374      C2377   1.364       .  A
O2375      C2376   1.332       .  A
C2376      C2377   1.392       .  A
C2377      H2383   1.082       .  S
O2378      C2379   1.331       .  A
C2379      C2380   1.391       .  A
C2380      H2384   1.082       .  S
C2385      C2390   1.381       .  A
C2385      C2386   1.403       .  A
C2385      O2391   1.318       .  A
C2386      C2387   1.402       .  A
C2386      H2397   1.082       .  S
C2387      C2396   1.360       .  A
C2387      C2388   1.380       .  A
C2388      C2389   1.406       .  A
C2388      O2394   1.322       .  A
C2389      C2390   1.405       .  A
C2389      H2398   1.082       .  S
C2390      C2393   1.364       .  A
O2391      C2392   1.330       .  A
C2392      C2393   1.393       .  A
C2393      H2399   1.082       .  S
O2394      C2395   1.332       .  A
C2395      C2396   1.392       .  A
C2396      H2400   1.082       .  S
C2401      C2406   1.381       .  A
C2401      C2402   1.406   1_655  A
C2401      O2407   1.323       .  A
C2402      C2403   1.406       .  A
C2402      H2413   1.082       .  S
C2403      C2412   1.365       .  A
C2403      C2404   1.381       .  A
C2404      C2405   1.403       .  A
C2404      O2410   1.319       .  A
C2405      C2406   1.402   1_455  A
C2405      H2414   1.082       .  S
C2406      C2409   1.360       .  A
O2407      C2408   1.332       .  A
C2408      C2409   1.391       .  A
C2409      H2415   1.082       .  S
O2410      C2411   1.330       .  A
C2411      C2412   1.393       .  A
C2412      H2416   1.082       .  S
C2417      C2422   1.380       .  A
C2417      C2418   1.407       .  A
C2417      O2423   1.324       .  A
C2418      C2419   1.407       .  A
C2418      H2429   1.082       .  S
C2419      C2428   1.366       .  A
C2419      C2420   1.380       .  A
C2420      C2421   1.404       .  A
C2420      O2426   1.321       .  A
C2421      C2422   1.404       .  A
C2421      H2430   1.082       .  S
C2422      C2425   1.362       .  A
O2423      C2424   1.333       .  A
C2424      C2425   1.392       .  A
C2425      H2431   1.082       .  S
O2426      C2427   1.331       .  A
C2427      C2428   1.394       .  A
C2428      H2432   1.082       .  S
C2433      C2438   1.379       .  A
C2433      C2434   1.410       .  A
C2433      O2439   1.324       .  A
C2434      C2435   1.409       .  A
C2434      H2445   1.082       .  S
C2435      C2444   1.370       .  A
C2435      C2436   1.380       .  A
C2436      C2437   1.406       .  A
C2436      O2442   1.321       .  A
C2437      C2438   1.405       .  A
C2437      H2446   1.082       .  S
C2438      C2441   1.365       .  A
O2439      C2440   1.335       .  A
C2440      C2441   1.392       .  A
C2441      H2447   1.082       .  S
O2442      C2443   1.332       .  A
C2443      C2444   1.395       .  A
C2444      H2448   1.082       .  S
C2449      C2454   1.380       .  A
C2449      C2450   1.403       .  A
C2449      O2455   1.316       .  A
C2450      C2451   1.401       .  A
C2450      H2461   1.082       .  S
C2451      C2460   1.362       .  A
C2451      C2452   1.380       .  A
C2452      C2453   1.408       .  A
C2452      O2458   1.321       .  A
C2453      C2454   1.406       .  A
C2453      H2462   1.082       .  S
C2454      C2457   1.369       .  A
O2455      C2456   1.330       .  A
C2456      C2457   1.392       .  A
C2457      H2463   1.082       .  S
O2458      C2459   1.333       .  A
C2459      C2460   1.390       .  A
C2460      H2464   1.082       .  S
C2465      C2470   1.380       .  A
C2465      C2466   1.404       .  A
C2465      O2471   1.319       .  A
C2466      C2467   1.403       .  A
C2466      H2477   1.082       .  S
C2467      C2476   1.363       .  A
C2467      C2468   1.380       .  A
C2468      C2469   1.408       .  A
C2468      O2474   1.321       .  A
C2469      C2470   1.406       .  A
C2469      H2478   1.082       .  S
C2470      C2473   1.367       .  A
O2471      C2472   1.331       .  A
C2472      C2473   1.393       .  A
C2473      H2479   1.082       .  S
O2474      C2475   1.333       .  A
C2475      C2476   1.391       .  A
C2476      H2480   1.082       .  S
C2481      C2486   1.381       .  A
C2481      C2482   1.403       .  A
C2481      O2487   1.321       .  A
C2482      C2483   1.404       .  A
C2482      H2493   1.082       .  S
C2483      C2492   1.361       .  A
C2483      C2484   1.381       .  A
C2484      C2485   1.402       .  A
C2484      O2490   1.319       .  A
C2485      C2486   1.402       .  A
C2485      H2494   1.082       .  S
C2486      C2489   1.358       .  A
O2487      C2488   1.331       .  A
C2488      C2489   1.390       .  A
C2489      H2495   1.083       .  S
O2490      C2491   1.330       .  A
C2491      C2492   1.391       .  A
C2492      H2496   1.082       .  S
C2497      C2502   1.380       .  A
C2497      C2498   1.403       .  A
C2497      O2503   1.318       .  A
C2498      C2499   1.403       .  A
C2498      H2509   1.082       .  S
C2499      C2508   1.363       .  A
C2499      C2500   1.380       .  A
C2500      C2501   1.408       .  A
C2500      O2506   1.322       .  A
C2501      C2502   1.406       .  A
C2501      H2510   1.082       .  S
C2502      C2505   1.367       .  A
O2503      C2504   1.331       .  A
C2504      C2505   1.393       .  A
C2505      H2511   1.082       .  S
O2506      C2507   1.333       .  A
C2507      C2508   1.391       .  A
C2508      H2512   1.082       .  S
C2513      C2518   1.379       .  A
C2513      C2514   1.405   1_655  A
C2513      O2519   1.321       .  A
C2514      C2515   1.405       .  A
C2514      H2525   1.082       .  S
C2515      C2524   1.364       .  A
C2515      C2516   1.379       .  A
C2516      C2517   1.412   1_455  A
C2516      O2522   1.327       .  A
C2517      C2518   1.412       .  A
C2517      H2526   1.082       .  S
C2518      C2521   1.373       .  A
O2519      C2520   1.332       .  A
C2520      C2521   1.397       .  A
C2521      H2527   1.082       .  S
O2522      C2523   1.336       .  A
C2523      C2524   1.392       .  A
C2524      H2528   1.082       .  S
C2529      C2534   1.380       .  A
C2529      C2530   1.406       .  A
C2529      O2535   1.321       .  A
C2530      C2531   1.405       .  A
C2530      H2541   1.082       .  S
C2531      C2540   1.365       .  A
C2531      C2532   1.380       .  A
C2532      C2533   1.405       .  A
C2532      O2538   1.320       .  A
C2533      C2534   1.404       .  A
C2533      H2542   1.082       .  S
C2534      C2537   1.365       .  A
O2535      C2536   1.332       .  A
C2536      C2537   1.392       .  A
C2537      H2543   1.082       .  S
O2538      C2539   1.331       .  A
C2539      C2540   1.392       .  A
C2540      H2544   1.082       .  S
C2545      C2550   1.381       .  A
C2545      C2546   1.402       .  A
C2545      O2551   1.319       .  A
C2546      C2547   1.402       .  A
C2546      H2557   1.082       .  S
C2547      C2556   1.359       .  A
C2547      C2548   1.381       .  A
C2548      C2549   1.406       .  A
C2548      O2554   1.324       .  A
C2549      C2550   1.407       .  A
C2549      H2558   1.082       .  S
C2550      C2553   1.364       .  A
O2551      C2552   1.330       .  A
C2552      C2553   1.393       .  A
C2553      H2559   1.082       .  S
O2554      C2555   1.332       .  A
C2555      C2556   1.391       .  A
C2556      H2560   1.082       .  S
C2561      C2566   1.380       .  A
C2561      C2562   1.403       .  A
C2561      O2567   1.319       .  A
C2562      C2563   1.402       .  A
C2562      H2573   1.082       .  S
C2563      C2572   1.361       .  A
C2563      C2564   1.380       .  A
C2564      C2565   1.409       .  A
C2564      O2570   1.324       .  A
C2565      C2566   1.409       .  A
C2565      H2574   1.082       .  S
C2566      C2569   1.369       .  A
O2567      C2568   1.331       .  A
C2568      C2569   1.395       .  A
C2569      H2575   1.082       .  S
O2570      C2571   1.334       .  A
C2571      C2572   1.391       .  A
C2572      H2576   1.082       .  S
C2577      C2582   1.380       .  A
C2577      C2578   1.403       .  A
C2577      O2583   1.318       .  A
C2578      C2579   1.402       .  A
C2578      H2589   1.082       .  S
C2579      C2588   1.362       .  A
C2579      C2580   1.380       .  A
C2580      C2581   1.408       .  A
C2580      O2586   1.322       .  A
C2581      C2582   1.407       .  A
C2581      H2590   1.082       .  S
C2582      C2585   1.368       .  A
O2583      C2584   1.330       .  A
C2584      C2585   1.394       .  A
C2585      H2591   1.082       .  S
O2586      C2587   1.334       .  A
C2587      C2588   1.389       .  A
C2588      H2592   1.082       .  S
C2593      C2598   1.381       .  A
C2593      C2594   1.398       .  A
C2593      O2599   1.315       .  A
C2594      C2595   1.397   1_455  A
C2594      H2605   1.082       .  S
C2595      C2604   1.354       .  A
C2595      C2596   1.381   1_655  A
C2596      C2597   1.407       .  A
C2596      O2602   1.324   1_455  A
C2597      C2598   1.408       .  A
C2597      H2606   1.082       .  S
C2598      C2601   1.366       .  A
O2599      C2600   1.328       .  A
C2600      C2601   1.394       .  A
C2601      H2607   1.082       .  S
O2602      C2603   1.332       .  A
C2603      C2604   1.388       .  A
C2604      H2608   1.083       .  S
C2609      C2614   1.380       .  A
C2609      C2610   1.409       .  A
C2609      O2615   1.323       .  A
C2610      C2611   1.408   1_556  A
C2610      H2621   1.082       .  S
C2611      C2620   1.368       .  A
C2611      C2612   1.380       .  A
C2612      C2613   1.403       .  A
C2612      O2618   1.318       .  A
C2613      C2614   1.402   1_554  A
C2613      H2622   1.082       .  S
C2614      C2617   1.362       .  A
O2615      C2616   1.335       .  A
C2616      C2617   1.390       .  A
C2617      H2623   1.082       .  S
O2618      C2619   1.330       .  A
C2619      C2620   1.394       .  A
C2620      H2624   1.082       .  S
C2625      C2630   1.381       .  A
C2625      C2626   1.406       .  A
C2625      O2631   1.323       .  A
C2626      C2627   1.407       .  A
C2626      H2637   1.082       .  S
C2627      C2636   1.364       .  A
C2627      C2628   1.381       .  A
C2628      C2629   1.402       .  A
C2628      O2634   1.320       .  A
C2629      C2630   1.402       .  A
C2629      H2638   1.082       .  S
C2630      C2633   1.358       .  A
O2631      C2632   1.332       .  A
C2632      C2633   1.390       .  A
C2633      H2639   1.083       .  S
O2634      C2635   1.330       .  A
C2635      C2636   1.394       .  A
C2636      H2640   1.082       .  S
C2641      C2646   1.380       .  A
C2641      C2642   1.405       .  A
C2641      O2647   1.321       .  A
C2642      C2643   1.404       .  A
C2642      H2653   1.082       .  S
C2643      C2652   1.363       .  A
C2643      C2644   1.380       .  A
C2644      C2645   1.404       .  A
C2644      O2650   1.320       .  A
C2645      C2646   1.404       .  A
C2645      H2654   1.082       .  S
C2646      C2649   1.363       .  A
O2647      C2648   1.332       .  A
C2648      C2649   1.392       .  A
C2649      H2655   1.082       .  S
O2650      C2651   1.331       .  A
C2651      C2652   1.392       .  A
C2652      H2656   1.082       .  S
C2657      C2662   1.380       .  A
C2657      C2658   1.406       .  A
C2657      O2663   1.319       .  A
C2658      C2659   1.404       .  A
C2658      H2669   1.082       .  S
C2659      C2668   1.366       .  A
C2659      C2660   1.380       .  A
C2660      C2661   1.403       .  A
C2660      O2666   1.317       .  A
C2661      C2662   1.401       .  A
C2661      H2670   1.082       .  S
C2662      C2665   1.363       .  A
O2663      C2664   1.331       .  A
C2664      C2665   1.391       .  A
C2665      H2671   1.082       .  S
O2666      C2667   1.330       .  A
C2667      C2668   1.392       .  A
C2668      H2672   1.082       .  S
C2673      C2678   1.380       .  A
C2673      C2674   1.409       .  A
C2673      O2679   1.326       .  A
C2674      C2675   1.409       .  A
C2674      H2685   1.082       .  S
C2675      C2684   1.368       .  A
C2675      C2676   1.380       .  A
C2676      C2677   1.405       .  A
C2676      O2682   1.322       .  A
C2677      C2678   1.405       .  A
C2677      H2686   1.082       .  S
C2678      C2681   1.363       .  A
O2679      C2680   1.335       .  A
C2680      C2681   1.393       .  A
C2681      H2687   1.082       .  S
O2682      C2683   1.332       .  A
C2683      C2684   1.395       .  A
C2684      H2688   1.082       .  S
C2689      C2694   1.380       .  A
C2689      C2690   1.406       .  A
C2689      O2695   1.322       .  A
C2690      C2691   1.406   1_565  A
C2690      H2701   1.082       .  S
C2691      C2700   1.365       .  A
C2691      C2692   1.379       .  A
C2692      C2693   1.409   1_545  A
C2692      O2698   1.325       .  A
C2693      C2694   1.409       .  A
C2693      H2702   1.082       .  S
C2694      C2697   1.368       .  A
O2695      C2696   1.333       .  A
C2696      C2697   1.394       .  A
C2697      H2703   1.082       .  S
O2698      C2699   1.335       .  A
C2699      C2700   1.392       .  A
C2700      H2704   1.082       .  S
C2705      C2710   1.381       .  A
C2705      C2706   1.405       .  A
C2705      O2711   1.322       .  A
C2706      C2707   1.405       .  A
C2706      H2717   1.082       .  S
C2707      C2716   1.363       .  A
C2707      C2708   1.380       .  A
C2708      C2709   1.404       .  A
C2708      O2714   1.320       .  A
C2709      C2710   1.403       .  A
C2709      H2718   1.082       .  S
C2710      C2713   1.361       .  A
O2711      C2712   1.331       .  A
C2712      C2713   1.391       .  A
C2713      H2719   1.082       .  S
O2714      C2715   1.331       .  A
C2715      C2716   1.392       .  A
C2716      H2720   1.082       .  S
C2721      C2726   1.380       .  A
C2721      C2722   1.408       .  A
C2721      O2727   1.325       .  A
C2722      C2723   1.408       .  A
C2722      H2733   1.082       .  S
C2723      C2732   1.366       .  A
C2723      C2724   1.381       .  A
C2724      C2725   1.401       .  A
C2724      O2730   1.318       .  A
C2725      C2726   1.401       .  A
C2725      H2734   1.082       .  S
C2726      C2729   1.358       .  A
O2727      C2728   1.333       .  A
C2728      C2729   1.391       .  A
C2729      H2735   1.082       .  S
O2730      C2731   1.329       .  A
C2731      C2732   1.394       .  A
C2732      H2736   1.082       .  S
C2737      C2742   1.381       .  A
C2737      C2738   1.401       .  A
C2737      O2743   1.318       .  A
C2738      C2739   1.401       .  A
C2738      H2749   1.082       .  S
C2739      C2748   1.358       .  A
C2739      C2740   1.381       .  A
C2740      C2741   1.403       .  A
C2740      O2746   1.321       .  A
C2741      C2742   1.403       .  A
C2741      H2750   1.082       .  S
C2742      C2745   1.361       .  A
O2743      C2744   1.330       .  A
C2744      C2745   1.391       .  A
C2745      H2751   1.082       .  S
O2746      C2747   1.330       .  A
C2747      C2748   1.391       .  A
C2748      H2752   1.083       .  S
C2753      C2758   1.380       .  A
C2753      C2754   1.406       .  A
C2753      O2759   1.323       .  A
C2754      C2755   1.406       .  A
C2754      H2765   1.082       .  S
C2755      C2764   1.363       .  A
C2755      C2756   1.381       .  A
C2756      C2757   1.404       .  A
C2756      O2762   1.321       .  A
C2757      C2758   1.404       .  A
C2757      H2766   1.082       .  S
C2758      C2761   1.361       .  A
O2759      C2760   1.332       .  A
C2760      C2761   1.392       .  A
C2761      H2767   1.082       .  S
O2762      C2763   1.331       .  A
C2763      C2764   1.393       .  A
C2764      H2768   1.082       .  S
C2769      C2774   1.381       .  A
C2769      C2770   1.407       .  A
C2769      O2775   1.323       .  A
C2770      C2771   1.407       .  A
C2770      H2781   1.082       .  S
C2771      C2780   1.365       .  A
C2771      C2772   1.381       .  A
C2772      C2773   1.400       .  A
C2772      O2778   1.318       .  A
C2773      C2774   1.401       .  A
C2773      H2782   1.082       .  S
C2774      C2777   1.357       .  A
O2775      C2776   1.332       .  A
C2776      C2777   1.390       .  A
C2777      H2783   1.083       .  S
O2778      C2779   1.329       .  A
C2779      C2780   1.393       .  A
C2780      H2784   1.082       .  S
C2785      C2790   1.380       .  A
C2785      C2786   1.403       .  A
C2785      O2791   1.321       .  A
C2786      C2787   1.404       .  A
C2786      H2797   1.082       .  S
C2787      C2796   1.360       .  A
C2787      C2788   1.380       .  A
C2788      C2789   1.407       .  A
C2788      O2794   1.325       .  A
C2789      C2790   1.408       .  A
C2789      H2798   1.082       .  S
C2790      C2793   1.365       .  A
O2791      C2792   1.331       .  A
C2792      C2793   1.394       .  A
C2793      H2799   1.082       .  S
O2794      C2795   1.333   1_556  A
C2795      C2796   1.392   1_554  A
C2796      H2800   1.082   1_556  S
C2801      C2806   1.380       .  A
C2801      C2802   1.401       .  A
C2801      O2807   1.316       .  A
C2802      C2803   1.400       .  A
C2802      H2813   1.082       .  S
C2803      C2812   1.360       .  A
C2803      C2804   1.380       .  A
C2804      C2805   1.409       .  A
C2804      O2810   1.322       .  A
C2805      C2806   1.407       .  A
C2805      H2814   1.082       .  S
C2806      C2809   1.369       .  A
O2807      C2808   1.329       .  A
C2808      C2809   1.393       .  A
C2809      H2815   1.082       .  S
O2810      C2811   1.334       .  A
C2811      C2812   1.389       .  A
C2812      H2816   1.082       .  S
C2817      C2822   1.379       .  A
C2817      C2818   1.409       .  A
C2817      O2823   1.323       .  A
C2818      C2819   1.408   1_655  A
C2818      H2829   1.082       .  S
C2819      C2828   1.368       .  A
C2819      C2820   1.380       .  A
C2820      C2821   1.405       .  A
C2820      O2826   1.321       .  A
C2821      C2822   1.404   1_455  A
C2821      H2830   1.082       .  S
C2822      C2825   1.365       .  A
O2823      C2824   1.334       .  A
C2824      C2825   1.391       .  A
C2825      H2831   1.082       .  S
O2826      C2827   1.331       .  A
C2827      C2828   1.395       .  A
C2828      H2832   1.082       .  S
C2833      C2838   1.379       .  A
C2833      C2834   1.411       .  A
C2833      O2839   1.324       .  A
C2834      C2835   1.409       .  A
C2834      H2845   1.082       .  S
C2835      C2844   1.371       .  A
C2835      C2836   1.380       .  A
C2836      C2837   1.403       .  A
C2836      O2842   1.318       .  A
C2837      C2838   1.401       .  A
C2837      H2846   1.082       .  S
C2838      C2841   1.362       .  A
O2839      C2840   1.335       .  A
C2840      C2841   1.390       .  A
C2841      H2847   1.082       .  S
O2842      C2843   1.331       .  A
C2843      C2844   1.396       .  A
C2844      H2848   1.082       .  S
C2849      C2854   1.381       .  A
C2849      C2850   1.403       .  A
C2849      O2855   1.320       .  A
C2850      C2851   1.403       .  A
C2850      H2861   1.082       .  S
C2851      C2860   1.360       .  A
C2851      C2852   1.381       .  A
C2852      C2853   1.403       .  A
C2852      O2858   1.321       .  A
C2853      C2854   1.404       .  A
C2853      H2862   1.082       .  S
C2854      C2857   1.361       .  A
O2855      C2856   1.330       .  A
C2856      C2857   1.392       .  A
C2857      H2863   1.082       .  S
O2858      C2859   1.331       .  A
C2859      C2860   1.391       .  A
C2860      H2864   1.082       .  S
C2865      C2870   1.380       .  A
C2865      C2866   1.406       .  A
C2865      O2871   1.324       .  A
C2866      C2867   1.407       .  A
C2866      H2877   1.082       .  S
C2867      C2876   1.364       .  A
C2867      C2868   1.381       .  A
C2868      C2869   1.401       .  A
C2868      O2874   1.319       .  A
C2869      C2870   1.401       .  A
C2869      H2878   1.082       .  S
C2870      C2873   1.357       .  A
O2871      C2872   1.332       .  A
C2872      C2873   1.390       .  A
C2873      H2879   1.082       .  S
O2874      C2875   1.330       .  A
C2875      C2876   1.393       .  A
C2876      H2880   1.082       .  S
C2881      C2886   1.380       .  A
C2881      C2882   1.405       .  A
C2881      O2887   1.320       .  A
C2882      C2883   1.405       .  A
C2882      H2893   1.082       .  S
C2883      C2892   1.365       .  A
C2883      C2884   1.380       .  A
C2884      C2885   1.407       .  A
C2884      O2890   1.322       .  A
C2885      C2886   1.406       .  A
C2885      H2894   1.082       .  S
C2886      C2889   1.366       .  A
O2887      C2888   1.332       .  A
C2888      C2889   1.393       .  A
C2889      H2895   1.082       .  S
O2890      C2891   1.333       .  A
C2891      C2892   1.393       .  A
C2892      H2896   1.082       .  S
C2897      C2902   1.381       .  A
C2897      C2898   1.403       .  A
C2897      O2903   1.320       .  A
C2898      C2899   1.403       .  A
C2898      H2909   1.082       .  S
C2899      C2908   1.360       .  A
C2899      C2900   1.381       .  A
C2900      C2901   1.407       .  A
C2900      O2906   1.325       .  A
C2901      C2902   1.408       .  A
C2901      H2910   1.082       .  S
C2902      C2905   1.366       .  A
O2903      C2904   1.331       .  A
C2904      C2905   1.394       .  A
C2905      H2911   1.082       .  S
O2906      C2907   1.333       .  A
C2907      C2908   1.392       .  A
C2908      H2912   1.083       .  S
C2913      C2918   1.380       .  A
C2913      C2914   1.406       .  A
C2913      O2919   1.320       .  A
C2914      C2915   1.405       .  A
C2914      H2925   1.082       .  S
C2915      C2924   1.366       .  A
C2915      C2916   1.380       .  A
C2916      C2917   1.406       .  A
C2916      O2922   1.320       .  A
C2917      C2918   1.405       .  A
C2917      H2926   1.082       .  S
C2918      C2921   1.367       .  A
O2919      C2920   1.333       .  A
C2920      C2921   1.393       .  A
C2921      H2927   1.082       .  S
O2922      C2923   1.332       .  A
C2923      C2924   1.392       .  A
C2924      H2928   1.082       .  S
C2929      C2934   1.380       .  A
C2929      C2930   1.407       .  A
C2929      O2935   1.321       .  A
C2930      C2931   1.406       .  A
C2930      H2941   1.082       .  S
C2931      C2940   1.368       .  A
C2931      C2932   1.380       .  A
C2932      C2933   1.402       .  A
C2932      O2938   1.316       .  A
C2933      C2934   1.401       .  A
C2933      H2942   1.082       .  S
C2934      C2937   1.362       .  A
O2935      C2936   1.333       .  A
C2936      C2937   1.390       .  A
C2937      H2943   1.082       .  S
O2938      C2939   1.330       .  A
C2939      C2940   1.393       .  A
C2940      H2944   1.082       .  S
C2945      C2950   1.380       .  A
C2945      C2946   1.404       .  A
C2945      O2951   1.318       .  A
C2946      C2947   1.402       .  A
C2946      H2957   1.082       .  S
C2947      C2956   1.363       .  A
C2947      C2948   1.380       .  A
C2948      C2949   1.408       .  A
C2948      O2954   1.321       .  A
C2949      C2950   1.406       .  A
C2949      H2958   1.082       .  S
C2950      C2953   1.369       .  A
O2951      C2952   1.331   1_556  A
C2952      C2953   1.393   1_554  A
C2953      H2959   1.082       .  S
O2954      C2955   1.333       .  A
C2955      C2956   1.391       .  A
C2956      H2960   1.082       .  S
C2961      C2966   1.380       .  A
C2961      C2962   1.405       .  A
C2961      O2967   1.322       .  A
C2962      C2963   1.405       .  A
C2962      H2973   1.082       .  S
C2963      C2972   1.362       .  A
C2963      C2964   1.380       .  A
C2964      C2965   1.404       .  A
C2964      O2970   1.322       .  A
C2965      C2966   1.405       .  A
C2965      H2974   1.082       .  S
C2966      C2969   1.361       .  A
O2967      C2968   1.332       .  A
C2968      C2969   1.392       .  A
C2969      H2975   1.082       .  S
O2970      C2971   1.332       .  A
C2971      C2972   1.392       .  A
C2972      H2976   1.082       .  S
C2977      C2982   1.381       .  A
C2977      C2978   1.406       .  A
C2977      O2983   1.324       .  A
C2978      C2979   1.407       .  A
C2978      H2989   1.082       .  S
C2979      C2988   1.365       .  A
C2979      C2980   1.381       .  A
C2980      C2981   1.401       .  A
C2980      O2986   1.319       .  A
C2981      C2982   1.402       .  A
C2981      H2990   1.082       .  S
C2982      C2985   1.357       .  A
O2983      C2984   1.332       .  A
C2984      C2985   1.391       .  A
C2985      H2991   1.083       .  S
O2986      C2987   1.330       .  A
C2987      C2988   1.393       .  A
C2988      H2992   1.082       .  S
C2993      C2998   1.380       .  A
C2993      C2994   1.409       .  A
C2993      O2999   1.321       .  A
C2994      C2995   1.407       .  A
C2994      H3005   1.082       .  S
C2995      C3004   1.369       .  A
C2995      C2996   1.380       .  A
C2996      C2997   1.401       .  A
C2996      O3002   1.316       .  A
C2997      C2998   1.399       .  A
C2997      H3006   1.082       .  S
C2998      C3001   1.360       .  A
O2999      C3000   1.334       .  A
C3000      C3001   1.389       .  A
C3001      H3007   1.082       .  S
O3002      C3003   1.329       .  A
C3003      C3004   1.394       .  A
C3004      H3008   1.082       .  S
C3009      C3014   1.380       .  A
C3009      C3010   1.407       .  A
C3009      O3015   1.323       .  A
C3010      C3011   1.407       .  A
C3010      H3021   1.082       .  S
C3011      C3020   1.365       .  A
C3011      C3012   1.380       .  A
C3012      C3013   1.404       .  A
C3012      O3018   1.322       .  A
C3013      C3014   1.404       .  A
C3013      H3022   1.082       .  S
C3014      C3017   1.362       .  A
O3015      C3016   1.333       .  A
C3016      C3017   1.391       .  A
C3017      H3023   1.082       .  S
O3018      C3019   1.332       .  A
C3019      C3020   1.393       .  A
C3020      H3024   1.082       .  S
C3025      C3030   1.380       .  A
C3025      C3026   1.400       .  A
C3025      O3031   1.315       .  A
C3026      C3027   1.398       .  A
C3026      H3037   1.082       .  S
C3027      C3036   1.359       .  A
C3027      C3028   1.380       .  A
C3028      C3029   1.410       .  A
C3028      O3034   1.323       .  A
C3029      C3030   1.409       .  A
C3029      H3038   1.082       .  S
C3030      C3033   1.370       .  A
O3031      C3032   1.328       .  A
C3032      C3033   1.395       .  A
C3033      H3039   1.082       .  S
O3034      C3035   1.334       .  A
C3035      C3036   1.388       .  A
C3036      H3040   1.082       .  S
C3041      C3046   1.380       .  A
C3041      C3042   1.407       .  A
C3041      O3047   1.325       .  A
C3042      C3043   1.408       .  A
C3042      H3053   1.082       .  S
C3043      C3052   1.365       .  A
C3043      C3044   1.380       .  A
C3044      C3045   1.407       .  A
C3044      O3050   1.324       .  A
C3045      C3046   1.407       .  A
C3045      H3054   1.082       .  S
C3046      C3049   1.365       .  A
O3047      C3048   1.334       .  A
C3048      C3049   1.393       .  A
C3049      H3055   1.082       .  S
O3050      C3051   1.333       .  A
C3051      C3052   1.393       .  A
C3052      H3056   1.082       .  S
C3057      C3062   1.379       .  A
C3057      C3058   1.408       .  A
C3057      O3063   1.322       .  A
C3058      C3059   1.407       .  A
C3058      H3069   1.082       .  S
C3059      C3068   1.369       .  A
C3059      C3060   1.380       .  A
C3060      C3061   1.407       .  A
C3060      O3066   1.321       .  A
C3061      C3062   1.406       .  A
C3061      H3070   1.082       .  S
C3062      C3065   1.368       .  A
O3063      C3064   1.333       .  A
C3064      C3065   1.394       .  A
C3065      H3071   1.082       .  S
O3066      C3067   1.332       .  A
C3067      C3068   1.394       .  A
C3068      H3072   1.082       .  S
C3073      C3078   1.380       .  A
C3073      C3074   1.401       .  A
C3073      O3079   1.316       .  A
C3074      C3075   1.400       .  A
C3074      H3085   1.082       .  S
C3075      C3084   1.361       .  A
C3075      C3076   1.380       .  A
C3076      C3077   1.410       .  A
C3076      O3082   1.324   1_565  A
C3077      C3078   1.409       .  A
C3077      H3086   1.082       .  S
C3078      C3081   1.371       .  A
O3079      C3080   1.329       .  A
C3080      C3081   1.395       .  A
C3081      H3087   1.082       .  S
O3082      C3083   1.334       .  A
C3083      C3084   1.389   1_545  A
C3084      H3088   1.082       .  S
C3089      C3094   1.380       .  A
C3089      C3090   1.405       .  A
C3089      O3095   1.319   1_565  A
C3090      C3091   1.403       .  A
C3090      H3101   1.082       .  S
C3091      C3100   1.365       .  A
C3091      C3092   1.380       .  A
C3092      C3093   1.407       .  A
C3092      O3098   1.321       .  A
C3093      C3094   1.406       .  A
C3093      H3102   1.082       .  S
C3094      C3097   1.368       .  A
O3095      C3096   1.332       .  A
C3096      C3097   1.392   1_545  A
C3097      H3103   1.082       .  S
O3098      C3099   1.333       .  A
C3099      C3100   1.392       .  A
C3100      H3104   1.082       .  S
C3105      C3110   1.380       .  A
C3105      C3106   1.408       .  A
C3105      O3111   1.324   1_565  A
C3106      C3107   1.408       .  A
C3106      H3117   1.082       .  S
C3107      C3116   1.367       .  A
C3107      C3108   1.380       .  A
C3108      C3109   1.407       .  A
C3108      O3114   1.323       .  A
C3109      C3110   1.407       .  A
C3109      H3118   1.082       .  S
C3110      C3113   1.365   1_565  A
O3111      C3112   1.334       .  A
C3112      C3113   1.394       .  A
C3113      H3119   1.082       .  S
O3114      C3115   1.333       .  A
C3115      C3116   1.394       .  A
C3116      H3120   1.082       .  S
C3121      C3126   1.380       .  A
C3121      C3122   1.403       .  A
C3121      O3127   1.321       .  A
C3122      C3123   1.404       .  A
C3122      H3133   1.082       .  S
C3123      C3132   1.359       .  A
C3123      C3124   1.380       .  A
C3124      C3125   1.408       .  A
C3124      O3130   1.326       .  A
C3125      C3126   1.409       .  A
C3125      H3134   1.082       .  S
C3126      C3129   1.366       .  A
O3127      C3128   1.332       .  A
C3128      C3129   1.394       .  A
C3129      H3135   1.082       .  S
O3130      C3131   1.334       .  A
C3131      C3132   1.392       .  A
C3132      H3136   1.082       .  S
C3137      C3142   1.380   1_556  A
C3137      C3138   1.408       .  A
C3137      O3143   1.324   1_556  A
C3138      C3139   1.407       .  A
C3138      H3149   1.082       .  S
C3139      C3148   1.367       .  A
C3139      C3140   1.379       .  A
C3140      C3141   1.409       .  A
C3140      O3146   1.324       .  A
C3141      C3142   1.408   1_556  A
C3141      H3150   1.082       .  S
C3142      C3145   1.368       .  A
O3143      C3144   1.333       .  A
C3144      C3145   1.395       .  A
C3145      H3151   1.082       .  S
O3146      C3147   1.334       .  A
C3147      C3148   1.394       .  A
C3148      H3152   1.082       .  S
C3153      C3158   1.380       .  A
C3153      C3154   1.408       .  A
C3153      O3159   1.324       .  A
C3154      C3155   1.407       .  A
C3154      H3165   1.082       .  S
C3155      C3164   1.366       .  A
C3155      C3156   1.380       .  A
C3156      C3157   1.405       .  A
C3156      O3162   1.322       .  A
C3157      C3158   1.405       .  A
C3157      H3166   1.082       .  S
C3158      C3161   1.363       .  A
O3159      C3160   1.333       .  A
C3160      C3161   1.393       .  A
C3161      H3167   1.082       .  S
O3162      C3163   1.332       .  A
C3163      C3164   1.394       .  A
C3164      H3168   1.082       .  S
C3169      C3174   1.380       .  A
C3169      C3170   1.404       .  A
C3169      O3175   1.317       .  A
C3170      C3171   1.402       .  A
C3170      H3181   1.082       .  S
C3171      C3180   1.364       .  A
C3171      C3172   1.380   1_455  A
C3172      C3173   1.406   1_655  A
C3172      O3178   1.320       .  A
C3173      C3174   1.404       .  A
C3173      H3182   1.082   1_455  S
C3174      C3177   1.366       .  A
O3175      C3176   1.331       .  A
C3176      C3177   1.391       .  A
C3177      H3183   1.082       .  S
O3178      C3179   1.332       .  A
C3179      C3180   1.391   1_655  A
C3180      H3184   1.082       .  S
C3185      C3190   1.381       .  A
C3185      C3186   1.398       .  A
C3185      O3191   1.315       .  A
C3186      C3187   1.398       .  A
C3186      H3197   1.082       .  S
C3187      C3196   1.354       .  A
C3187      C3188   1.380       .  A
C3188      C3189   1.409       .  A
C3188      O3194   1.325       .  A
C3189      C3190   1.409       .  A
C3189      H3198   1.082       .  S
C3190      C3193   1.369       .  A
O3191      C3192   1.328       .  A
C3192      C3193   1.395       .  A
C3193      H3199   1.082       .  S
O3194      C3195   1.334       .  A
C3195      C3196   1.389       .  A
C3196      H3200   1.083       .  S
C3201      C3206   1.380       .  A
C3201      C3202   1.407       .  A
C3201      O3207   1.321       .  A
C3202      C3203   1.405       .  A
C3202      H3213   1.082       .  S
C3203      C3212   1.367       .  A
C3203      C3204   1.380       .  A
C3204      C3205   1.403       .  A
C3204      O3210   1.318       .  A
C3205      C3206   1.402       .  A
C3205      H3214   1.082       .  S
C3206      C3209   1.362       .  A
O3207      C3208   1.333       .  A
C3208      C3209   1.391       .  A
C3209      H3215   1.082       .  S
O3210      C3211   1.331       .  A
C3211      C3212   1.392       .  A
C3212      H3216   1.082       .  S
C3217      C3222   1.380       .  A
C3217      C3218   1.408       .  A
C3217      O3223   1.325       .  A
C3218      C3219   1.408       .  A
C3218      H3229   1.082       .  S
C3219      C3228   1.365       .  A
C3219      C3220   1.380       .  A
C3220      C3221   1.404       .  A
C3220      O3226   1.322       .  A
C3221      C3222   1.404       .  A
C3221      H3230   1.082       .  S
C3222      C3225   1.360       .  A
O3223      C3224   1.334       .  A
C3224      C3225   1.391       .  A
C3225      H3231   1.082       .  S
O3226      C3227   1.332       .  A
C3227      C3228   1.394       .  A
C3228      H3232   1.082       .  S
C3233      C3238   1.381       .  A
C3233      C3234   1.403       .  A
C3233      O3239   1.316       .  A
C3234      C3235   1.401       .  A
C3234      H3245   1.083       .  S
C3235      C3244   1.363       .  A
C3235      C3236   1.380       .  A
C3236      C3237   1.408       .  A
C3236      O3242   1.321   1_556  A
C3237      C3238   1.407       .  A
C3237      H3246   1.083       .  S
C3238      C3241   1.370       .  A
O3239      C3240   1.330       .  A
C3240      C3241   1.393       .  A
C3241      H3247   1.083       .  S
O3242      C3243   1.333       .  A
C3243      C3244   1.390   1_554  A
C3244      H3248   1.083       .  S
C3249      C3254   1.380       .  A
C3249      C3250   1.405       .  A
C3249      O3255   1.318       .  A
C3250      C3251   1.403       .  A
C3250      H3261   1.082       .  S
C3251      C3260   1.365       .  A
C3251      C3252   1.380       .  A
C3252      C3253   1.405       .  A
C3252      O3258   1.318       .  A
C3253      C3254   1.403       .  A
C3253      H3262   1.082       .  S
C3254      C3257   1.365       .  A
O3255      C3256   1.331       .  A
C3256      C3257   1.391       .  A
C3257      H3263   1.082       .  S
O3258      C3259   1.332       .  A
C3259      C3260   1.391       .  A
C3260      H3264   1.082       .  S
C3265      C3270   1.380       .  A
C3265      C3266   1.407       .  A
C3265      O3271   1.325   1_455  A
C3266      C3267   1.408       .  A
C3266      H3277   1.082       .  S
C3267      C3276   1.365       .  A
C3267      C3268   1.380       .  A
C3268      C3269   1.403       .  A
C3268      O3274   1.321       .  A
C3269      C3270   1.403       .  A
C3269      H3278   1.082       .  S
C3270      C3273   1.359   1_455  A
O3271      C3272   1.333       .  A
C3272      C3273   1.391       .  A
C3273      H3279   1.082       .  S
O3274      C3275   1.331       .  A
C3275      C3276   1.394       .  A
C3276      H3280   1.082       .  S
C3281      C3286   1.381       .  A
C3281      C3282   1.402       .  A
C3281      O3287   1.319       .  A
C3282      C3283   1.402       .  A
C3282      H3293   1.082       .  S
C3283      C3292   1.359       .  A
C3283      C3284   1.380       .  A
C3284      C3285   1.406       .  A
C3284      O3290   1.323       .  A
C3285      C3286   1.407       .  A
C3285      H3294   1.082       .  S
C3286      C3289   1.365       .  A
O3287      C3288   1.330       .  A
C3288      C3289   1.393       .  A
C3289      H3295   1.082       .  S
O3290      C3291   1.332       .  A
C3291      C3292   1.391       .  A
C3292      H3296   1.083       .  S
C3297      C3302   1.380       .  A
C3297      C3298   1.406       .  A
C3297      O3303   1.320       .  A
C3298      C3299   1.404       .  A
C3298      H3309   1.082       .  S
C3299      C3308   1.365       .  A
C3299      C3300   1.380       .  A
C3300      C3301   1.406       .  A
C3300      O3306   1.320       .  A
C3301      C3302   1.405       .  A
C3301      H3310   1.082       .  S
C3302      C3305   1.365       .  A
O3303      C3304   1.332       .  A
C3304      C3305   1.392       .  A
C3305      H3311   1.082       .  S
O3306      C3307   1.332       .  A
C3307      C3308   1.392       .  A
C3308      H3312   1.082       .  S
C3313      C3318   1.381       .  A
C3313      C3314   1.402       .  A
C3313      O3319   1.321       .  A
C3314      C3315   1.403       .  A
C3314      H3325   1.082       .  S
C3315      C3324   1.358       .  A
C3315      C3316   1.381       .  A
C3316      C3317   1.404       .  A
C3316      O3322   1.322       .  A
C3317      C3318   1.405       .  A
C3317      H3326   1.082       .  S
C3318      C3321   1.361       .  A
O3319      C3320   1.330       .  A
C3320      C3321   1.393       .  A
C3321      H3327   1.082       .  S
O3322      C3323   1.332       .  A
C3323      C3324   1.390       .  A
C3324      H3328   1.082       .  S
C3329      C3334   1.380       .  A
C3329      C3330   1.406       .  A
C3329      O3335   1.321       .  A
C3330      C3331   1.405       .  A
C3330      H3341   1.082       .  S
C3331      C3340   1.365       .  A
C3331      C3332   1.381       .  A
C3332      C3333   1.403       .  A
C3332      O3338   1.317       .  A
C3333      C3334   1.402       .  A
C3333      H3342   1.082       .  S
C3334      C3337   1.363       .  A
O3335      C3336   1.333       .  A
C3336      C3337   1.391       .  A
C3337      H3343   1.082       .  S
O3338      C3339   1.330       .  A
C3339      C3340   1.391       .  A
C3340      H3344   1.082       .  S
C3345      C3350   1.379       .  A
C3345      C3346   1.410       .  A
C3345      O3351   1.324       .  A
C3346      C3347   1.409       .  A
C3346      H3357   1.082       .  S
C3347      C3356   1.370       .  A
C3347      C3348   1.379       .  A
C3348      C3349   1.407       .  A
C3348      O3354   1.322       .  A
C3349      C3350   1.406       .  A
C3349      H3358   1.082       .  S
C3350      C3353   1.366       .  A
O3351      C3352   1.334       .  A
C3352      C3353   1.393       .  A
C3353      H3359   1.082       .  S
O3354      C3355   1.333       .  A
C3355      C3356   1.395       .  A
C3356      H3360   1.082       .  S
C3361      C3366   1.380       .  A
C3361      C3362   1.409       .  A
C3361      O3367   1.322       .  A
C3362      C3363   1.407       .  A
C3362      H3373   1.082       .  S
C3363      C3372   1.369       .  A
C3363      C3364   1.380       .  A
C3364      C3365   1.401       .  A
C3364      O3370   1.316       .  A
C3365      C3366   1.400       .  A
C3365      H3374   1.082       .  S
C3366      C3369   1.361       .  A
O3367      C3368   1.334       .  A
C3368      C3369   1.390       .  A
C3369      H3375   1.082       .  S
O3370      C3371   1.329       .  A
C3371      C3372   1.393       .  A
C3372      H3376   1.082       .  S
C3377      C3382   1.380       .  A
C3377      C3378   1.403       .  A
C3377      O3383   1.317       .  A
C3378      C3379   1.402       .  A
C3378      H3389   1.082       .  S
C3379      C3388   1.361       .  A
C3379      C3380   1.380       .  A
C3380      C3381   1.406       .  A
C3380      O3386   1.321       .  A
C3381      C3382   1.405       .  A
C3381      H3390   1.082       .  S
C3382      C3385   1.367       .  A
O3383      C3384   1.331       .  A
C3384      C3385   1.392       .  A
C3385      H3391   1.082       .  S
O3386      C3387   1.332       .  A
C3387      C3388   1.391       .  A
C3388      H3392   1.083       .  S
C3393      C3398   1.380       .  A
C3393      C3394   1.407       .  A
C3393      O3399   1.324       .  A
C3394      C3395   1.407       .  A
C3394      H3405   1.082       .  S
C3395      C3404   1.364       .  A
C3395      C3396   1.380       .  A
C3396      C3397   1.406       .  A
C3396      O3402   1.323       .  A
C3397      C3398   1.406       .  A
C3397      H3406   1.082       .  S
C3398      C3401   1.364       .  A
O3399      C3400   1.333       .  A
C3400      C3401   1.393       .  A
C3401      H3407   1.082       .  S
O3402      C3403   1.332       .  A
C3403      C3404   1.393       .  A
C3404      H3408   1.082       .  S
C3409      C3414   1.381       .  A
C3409      C3410   1.407       .  A
C3409      O3415   1.321       .  A
C3410      C3411   1.406       .  A
C3410      H3421   1.082       .  S
C3411      C3420   1.369       .  A
C3411      C3412   1.380       .  A
C3412      C3413   1.401       .  A
C3412      O3418   1.316       .  A
C3413      C3414   1.400       .  A
C3413      H3422   1.082       .  S
C3414      C3417   1.360       .  A
O3415      C3416   1.332       .  A
C3416      C3417   1.389       .  A
C3417      H3423   1.083       .  S
O3418      C3419   1.330       .  A
C3419      C3420   1.393       .  A
C3420      H3424   1.082       .  S
C3425      C3430   1.381       .  A
C3425      C3426   1.406       .  A
C3425      O3431   1.322       .  A
C3426      C3427   1.406       .  A
C3426      H3437   1.082       .  S
C3427      C3436   1.363       .  A
C3427      C3428   1.381       .  A
C3428      C3429   1.400       .  A
C3428      O3434   1.318       .  A
C3429      C3430   1.400       .  A
C3429      H3438   1.082       .  S
C3430      C3433   1.357   1_556  A
O3431      C3432   1.332   1_556  A
C3432      C3433   1.390       .  A
C3433      H3439   1.082       .  S
O3434      C3435   1.328       .  A
C3435      C3436   1.393       .  A
C3436      H3440   1.083       .  S
C3441      C3446   1.381       .  A
C3441      C3442   1.402       .  A
C3441      O3447   1.320       .  A
C3442      C3443   1.403       .  A
C3442      H3453   1.082       .  S
C3443      C3452   1.359       .  A
C3443      C3444   1.381       .  A
C3444      C3445   1.406       .  A
C3444      O3450   1.324       .  A
C3445      C3446   1.407       .  A
C3445      H3454   1.082       .  S
C3446      C3449   1.365       .  A
O3447      C3448   1.330       .  A
C3448      C3449   1.393       .  A
C3449      H3455   1.082       .  S
O3450      C3451   1.332       .  A
C3451      C3452   1.391       .  A
C3452      H3456   1.083       .  S
C3457      C3462   1.380       .  A
C3457      C3458   1.402       .  A
C3457      O3463   1.316       .  A
C3458      C3459   1.401       .  A
C3458      H3469   1.082       .  S
C3459      C3468   1.363       .  A
C3459      C3460   1.380       .  A
C3460      C3461   1.407       .  A
C3460      O3466   1.319       .  A
C3461      C3462   1.405       .  A
C3461      H3470   1.082       .  S
C3462      C3465   1.367       .  A
O3463      C3464   1.330       .  A
C3464      C3465   1.392       .  A
C3465      H3471   1.082       .  S
O3466      C3467   1.332       .  A
C3467      C3468   1.390       .  A
C3468      H3472   1.082       .  S
C3473      C3478   1.379       .  A
C3473      C3474   1.409       .  A
C3473      O3479   1.324       .  A
C3474      C3475   1.408       .  A
C3474      H3485   1.082       .  S
C3475      C3484   1.369       .  A
C3475      C3476   1.379       .  A
C3476      C3477   1.408       .  A
C3476      O3482   1.323       .  A
C3477      C3478   1.407       .  A
C3477      H3486   1.082       .  S
C3478      C3481   1.368       .  A
O3479      C3480   1.334       .  A
C3480      C3481   1.394       .  A
C3481      H3487   1.082       .  S
O3482      C3483   1.334       .  A
C3483      C3484   1.394       .  A
C3484      H3488   1.082       .  S
C3489      C3494   1.381       .  A
C3489      C3490   1.403       .  A
C3489      O3495   1.320       .  A
C3490      C3491   1.403       .  A
C3490      H3501   1.082       .  S
C3491      C3500   1.362       .  A
C3491      C3492   1.380       .  A
C3492      C3493   1.406       .  A
C3492      O3498   1.323       .  A
C3493      C3494   1.406       .  A
C3493      H3502   1.082       .  S
C3494      C3497   1.364       .  A
O3495      C3496   1.330       .  A
C3496      C3497   1.393       .  A
C3497      H3503   1.082       .  S
O3498      C3499   1.333       .  A
C3499      C3500   1.392       .  A
C3500      H3504   1.082       .  S
C3505      C3510   1.381       .  A
C3505      C3506   1.401       .  A
C3505      O3511   1.318       .  A
C3506      C3507   1.401       .  A
C3506      H3517   1.082       .  S
C3507      C3516   1.358       .  A
C3507      C3508   1.380       .  A
C3508      C3509   1.408       .  A
C3508      O3514   1.325       .  A
C3509      C3510   1.408       .  A
C3509      H3518   1.082       .  S
C3510      C3513   1.366       .  A
O3511      C3512   1.329       .  A
C3512      C3513   1.394       .  A
C3513      H3519   1.082       .  S
O3514      C3515   1.333       .  A
C3515      C3516   1.391       .  A
C3516      H3520   1.083       .  S
C3521      C3526   1.380       .  A
C3521      C3522   1.407       .  A
C3521      O3527   1.323       .  A
C3522      C3523   1.407   1_545  A
C3522      H3533   1.082   1_545  S
C3523      C3532   1.366       .  A
C3523      C3524   1.380   1_565  A
C3524      C3525   1.403       .  A
C3524      O3530   1.320   1_545  A
C3525      C3526   1.403       .  A
C3525      H3534   1.082       .  S
C3526      C3529   1.362       .  A
O3527      C3528   1.333       .  A
C3528      C3529   1.392       .  A
C3529      H3535   1.082       .  S
O3530      C3531   1.330       .  A
C3531      C3532   1.394       .  A
C3532      H3536   1.082       .  S
C3537      C3542   1.380       .  A
C3537      C3538   1.408       .  A
C3537      O3543   1.325       .  A
C3538      C3539   1.408   1_565  A
C3538      H3549   1.082       .  S
C3539      C3548   1.367       .  A
C3539      C3540   1.380       .  A
C3540      C3541   1.406   1_545  A
C3540      O3546   1.323       .  A
C3541      C3542   1.406       .  A
C3541      H3550   1.082       .  S
C3542      C3545   1.364       .  A
O3543      C3544   1.334       .  A
C3544      C3545   1.393       .  A
C3545      H3551   1.082       .  S
O3546      C3547   1.333       .  A
C3547      C3548   1.395       .  A
C3548      H3552   1.082       .  S
C3553      C3558   1.380       .  A
C3553      C3554   1.408       .  A
C3553      O3559   1.321       .  A
C3554      C3555   1.407       .  A
C3554      H3565   1.082       .  S
C3555      C3564   1.369       .  A
C3555      C3556   1.380       .  A
C3556      C3557   1.401       .  A
C3556      O3562   1.316       .  A
C3557      C3558   1.400       .  A
C3557      H3566   1.082       .  S
C3558      C3561   1.360       .  A
O3559      C3560   1.333       .  A
C3560      C3561   1.390       .  A
C3561      H3567   1.082       .  S
O3562      C3563   1.330       .  A
C3563      C3564   1.393       .  A
C3564      H3568   1.082       .  S
C3569      C3574   1.381       .  A
C3569      C3570   1.406       .  A
C3569      O3575   1.321       .  A
C3570      C3571   1.405       .  A
C3570      H3581   1.082       .  S
C3571      C3580   1.364       .  A
C3571      C3572   1.381       .  A
C3572      C3573   1.402       .  A
C3572      O3578   1.318       .  A
C3573      C3574   1.401       .  A
C3573      H3582   1.082       .  S
C3574      C3577   1.360       .  A
O3575      C3576   1.332       .  A
C3576      C3577   1.389       .  A
C3577      H3583   1.082       .  S
O3578      C3579   1.330       .  A
C3579      C3580   1.391       .  A
C3580      H3584   1.082       .  S
C3585      C3590   1.380       .  A
C3585      C3586   1.408       .  A
C3585      O3591   1.323       .  A
C3586      C3587   1.407       .  A
C3586      H3597   1.082       .  S
C3587      C3596   1.368   1_556  A
C3587      C3588   1.380       .  A
C3588      C3589   1.406       .  A
C3588      O3594   1.320   1_556  A
C3589      C3590   1.405       .  A
C3589      H3598   1.082       .  S
C3590      C3593   1.365       .  A
O3591      C3592   1.333       .  A
C3592      C3593   1.392       .  A
C3593      H3599   1.082       .  S
O3594      C3595   1.332       .  A
C3595      C3596   1.393       .  A
C3596      H3600   1.082       .  S
C3601      C3606   1.380       .  A
C3601      C3602   1.406       .  A
C3601      O3607   1.321       .  A
C3602      C3603   1.405       .  A
C3602      H3613   1.082       .  S
C3603      C3612   1.366       .  A
C3603      C3604   1.380       .  A
C3604      C3605   1.406       .  A
C3604      O3610   1.320       .  A
C3605      C3606   1.404       .  A
C3605      H3614   1.082       .  S
C3606      C3609   1.364       .  A
O3607      C3608   1.332       .  A
C3608      C3609   1.392       .  A
C3609      H3615   1.082       .  S
O3610      C3611   1.332       .  A
C3611      C3612   1.392       .  A
C3612      H3616   1.082       .  S
C3617      C3622   1.380       .  A
C3617      C3618   1.407       .  A
C3617      O3623   1.324       .  A
C3618      C3619   1.408       .  A
C3618      H3629   1.082       .  S
C3619      C3628   1.367       .  A
C3619      C3620   1.381       .  A
C3620      C3621   1.400       .  A
C3620      O3626   1.316       .  A
C3621      C3622   1.399       .  A
C3621      H3630   1.082       .  S
C3622      C3625   1.355       .  A
O3623      C3624   1.332       .  A
C3624      C3625   1.389       .  A
C3625      H3631   1.083       .  S
O3626      C3627   1.329       .  A
C3627      C3628   1.394       .  A
C3628      H3632   1.082       .  S
C3633      C3638   1.381       .  A
C3633      C3634   1.401       .  A
C3633      O3639   1.319       .  A
C3634      C3635   1.401       .  A
C3634      H3645   1.082       .  S
C3635      C3644   1.357       .  A
C3635      C3636   1.381       .  A
C3636      C3637   1.406       .  A
C3636      O3642   1.323       .  A
C3637      C3638   1.406       .  A
C3637      H3646   1.082       .  S
C3638      C3641   1.363       .  A
O3639      C3640   1.329       .  A
C3640      C3641   1.393       .  A
C3641      H3647   1.083       .  S
O3642      C3643   1.332       .  A
C3643      C3644   1.390       .  A
C3644      H3648   1.083       .  S
C3649      C3654   1.379       .  A
C3649      C3650   1.407       .  A
C3649      O3655   1.322       .  A
C3650      C3651   1.406   1_455  A
C3650      H3661   1.082       .  S
C3651      C3660   1.367       .  A
C3651      C3652   1.379       .  A
C3652      C3653   1.408       .  A
C3652      O3658   1.323       .  A
C3653      C3654   1.408   1_655  A
C3653      H3662   1.082       .  S
C3654      C3657   1.369       .  A
O3655      C3656   1.333       .  A
C3656      C3657   1.395       .  A
C3657      H3663   1.082       .  S
O3658      C3659   1.333       .  A
C3659      C3660   1.394       .  A
C3660      H3664   1.082       .  S
C3665      C3670   1.380   1_565  A
C3665      C3666   1.401   1_565  A
C3665      O3671   1.317       .  A
C3666      C3667   1.400       .  A
C3666      H3677   1.082       .  S
C3667      C3676   1.359       .  A
C3667      C3668   1.380       .  A
C3668      C3669   1.408       .  A
C3668      O3674   1.323       .  A
C3669      C3670   1.407       .  A
C3669      H3678   1.082       .  S
C3670      C3673   1.368   1_545  A
O3671      C3672   1.330       .  A
C3672      C3673   1.393       .  A
C3673      H3679   1.082       .  S
O3674      C3675   1.334       .  A
C3675      C3676   1.390       .  A
C3676      H3680   1.082       .  S
C3681      C3686   1.380       .  A
C3681      C3682   1.401       .  A
C3681      O3687   1.316       .  A
C3682      C3683   1.400       .  A
C3682      H3693   1.082       .  S
C3683      C3692   1.361       .  A
C3683      C3684   1.380       .  A
C3684      C3685   1.410       .  A
C3684      O3690   1.323       .  A
C3685      C3686   1.409       .  A
C3685      H3694   1.082       .  S
C3686      C3689   1.370       .  A
O3687      C3688   1.329       .  A
C3688      C3689   1.395       .  A
C3689      H3695   1.082       .  S
O3690      C3691   1.334       .  A
C3691      C3692   1.390       .  A
C3692      H3696   1.082       .  S
C3697      C3702   1.380       .  A
C3697      C3698   1.405       .  A
C3697      O3703   1.319       .  A
C3698      C3699   1.404       .  A
C3698      H3709   1.082       .  S
C3699      C3708   1.366       .  A
C3699      C3700   1.379       .  A
C3700      C3701   1.409       .  A
C3700      O3706   1.323       .  A
C3701      C3702   1.408       .  A
C3701      H3710   1.082       .  S
C3702      C3705   1.369       .  A
O3703      C3704   1.331       .  A
C3704      C3705   1.394       .  A
C3705      H3711   1.082       .  S
O3706      C3707   1.334       .  A
C3707      C3708   1.393       .  A
C3708      H3712   1.082       .  S
C3713      C3718   1.380       .  A
C3713      C3714   1.406       .  A
C3713      O3719   1.322       .  A
C3714      C3715   1.406       .  A
C3714      H3725   1.082       .  S
C3715      C3724   1.364       .  A
C3715      C3716   1.380       .  A
C3716      C3717   1.404       .  A
C3716      O3722   1.321       .  A
C3717      C3718   1.404       .  A
C3717      H3726   1.082       .  S
C3718      C3721   1.362       .  A
O3719      C3720   1.332       .  A
C3720      C3721   1.391       .  A
C3721      H3727   1.082       .  S
O3722      C3723   1.331       .  A
C3723      C3724   1.393       .  A
C3724      H3728   1.082       .  S
C3729      C3734   1.381       .  A
C3729      C3730   1.406       .  A
C3729      O3735   1.322       .  A
C3730      C3731   1.406       .  A
C3730      H3741   1.082       .  S
C3731      C3740   1.364       .  A
C3731      C3732   1.381       .  A
C3732      C3733   1.399       .  A
C3732      O3738   1.316       .  A
C3733      C3734   1.399       .  A
C3733      H3742   1.082       .  S
C3734      C3737   1.355       .  A
O3735      C3736   1.331       .  A
C3736      C3737   1.389       .  A
C3737      H3743   1.083       .  S
O3738      C3739   1.328       .  A
C3739      C3740   1.393       .  A
C3740      H3744   1.082       .  S
C3745      C3750   1.380   1_565  A
C3745      C3746   1.404   1_565  A
C3745      O3751   1.318       .  A
C3746      C3747   1.403       .  A
C3746      H3757   1.082   1_545  S
C3747      C3756   1.364       .  A
C3747      C3748   1.380       .  A
C3748      C3749   1.410       .  A
C3748      O3754   1.323       .  A
C3749      C3750   1.408       .  A
C3749      H3758   1.082       .  S
C3750      C3753   1.371   1_545  A
O3751      C3752   1.331       .  A
C3752      C3753   1.394       .  A
C3753      H3759   1.082       .  S
O3754      C3755   1.335       .  A
C3755      C3756   1.392       .  A
C3756      H3760   1.082       .  S
C3761      C3766   1.381       .  A
C3761      C3762   1.405       .  A
C3761      O3767   1.323       .  A
C3762      C3763   1.406       .  A
C3762      H3773   1.082       .  S
C3763      C3772   1.365       .  A
C3763      C3764   1.381       .  A
C3764      C3765   1.402       .  A
C3764      O3770   1.318       .  A
C3765      C3766   1.401       .  A
C3765      H3774   1.082       .  S
C3766      C3769   1.358       .  A
O3767      C3768   1.331       .  A
C3768      C3769   1.391       .  A
C3769      H3775   1.083       .  S
O3770      C3771   1.330       .  A
C3771      C3772   1.393       .  A
C3772      H3776   1.082       .  S
C3777      C3782   1.380       .  A
C3777      C3778   1.404       .  A
C3777      O3783   1.318       .  A
C3778      C3779   1.402       .  A
C3778      H3789   1.082       .  S
C3779      C3788   1.364       .  A
C3779      C3780   1.380       .  A
C3780      C3781   1.405       .  A
C3780      O3786   1.318       .  A
C3781      C3782   1.403       .  A
C3781      H3790   1.082       .  S
C3782      C3785   1.365       .  A
O3783      C3784   1.331       .  A
C3784      C3785   1.392       .  A
C3785      H3791   1.082       .  S
O3786      C3787   1.331       .  A
C3787      C3788   1.390       .  A
C3788      H3792   1.082       .  S
C3793      C3798   1.380       .  A
C3793      C3794   1.407       .  A
C3793      O3799   1.324       .  A
C3794      C3795   1.407       .  A
C3794      H3805   1.082       .  S
C3795      C3804   1.365       .  A
C3795      C3796   1.380       .  A
C3796      C3797   1.404       .  A
C3796      O3802   1.321       .  A
C3797      C3798   1.403       .  A
C3797      H3806   1.082       .  S
C3798      C3801   1.361       .  A
O3799      C3800   1.333       .  A
C3800      C3801   1.391       .  A
C3801      H3807   1.082       .  S
O3802      C3803   1.331       .  A
C3803      C3804   1.394       .  A
C3804      H3808   1.082       .  S
C3809      C3814   1.380       .  A
C3809      C3810   1.400       .  A
C3809      O3815   1.314       .  A
C3810      C3811   1.399       .  A
C3810      H3821   1.082       .  S
C3811      C3820   1.359       .  A
C3811      C3812   1.380       .  A
C3812      C3813   1.408       .  A
C3812      O3818   1.321       .  A
C3813      C3814   1.406       .  A
C3813      H3822   1.082       .  S
C3814      C3817   1.369       .  A
O3815      C3816   1.329       .  A
C3816      C3817   1.393       .  A
C3817      H3823   1.082       .  S
O3818      C3819   1.332       .  A
C3819      C3820   1.390       .  A
C3820      H3824   1.083       .  S
C3825      C3830   1.380       .  A
C3825      C3826   1.400       .  A
C3825      O3831   1.315       .  A
C3826      C3827   1.399       .  A
C3826      H3837   1.082       .  S
C3827      C3836   1.358       .  A
C3827      C3828   1.380       .  A
C3828      C3829   1.411       .  A
C3828      O3834   1.324       .  A
C3829      C3830   1.409       .  A
C3829      H3838   1.082       .  S
C3830      C3833   1.371       .  A
O3831      C3832   1.329       .  A
C3832      C3833   1.395       .  A
C3833      H3839   1.082       .  S
O3834      C3835   1.335       .  A
C3835      C3836   1.389       .  A
C3836      H3840   1.082       .  S
C3841      C3846   1.381   1_545  A
C3841      C3842   1.403       .  A
C3841      O3847   1.320   1_545  A
C3842      C3843   1.403       .  A
C3842      H3853   1.082       .  S
C3843      C3852   1.360       .  A
C3843      C3844   1.381       .  A
C3844      C3845   1.405       .  A
C3844      O3850   1.322       .  A
C3845      C3846   1.405   1_545  A
C3845      H3854   1.082   1_545  S
C3846      C3849   1.363       .  A
O3847      C3848   1.330       .  A
C3848      C3849   1.392       .  A
C3849      H3855   1.082       .  S
O3850      C3851   1.331       .  A
C3851      C3852   1.391       .  A
C3852      H3856   1.082       .  S
C3857      C3862   1.380       .  A
C3857      C3858   1.408       .  A
C3857      O3863   1.325       .  A
C3858      C3859   1.408       .  A
C3858      H3869   1.082       .  S
C3859      C3868   1.367       .  A
C3859      C3860   1.380       .  A
C3860      C3861   1.402       .  A
C3860      O3866   1.320       .  A
C3861      C3862   1.402       .  A
C3861      H3870   1.082       .  S
C3862      C3865   1.359       .  A
O3863      C3864   1.333       .  A
C3864      C3865   1.391       .  A
C3865      H3871   1.082       .  S
O3866      C3867   1.331       .  A
C3867      C3868   1.394       .  A
C3868      H3872   1.082       .  S
C3873      C3878   1.380       .  A
C3873      C3874   1.407       .  A
C3873      O3879   1.321       .  A
C3874      C3875   1.405       .  A
C3874      H3885   1.082       .  S
C3875      C3884   1.366       .  A
C3875      C3876   1.380       .  A
C3876      C3877   1.406       .  A
C3876      O3882   1.320       .  A
C3877      C3878   1.404       .  A
C3877      H3886   1.082       .  S
C3878      C3881   1.366       .  A
O3879      C3880   1.333       .  A
C3880      C3881   1.392       .  A
C3881      H3887   1.082       .  S
O3882      C3883   1.332       .  A
C3883      C3884   1.393       .  A
C3884      H3888   1.082       .  S
C3889      C3894   1.381       .  A
C3889      C3890   1.406       .  A
C3889      O3895   1.324       .  A
C3890      C3891   1.406       .  A
C3890      H3901   1.082       .  S
C3891      C3900   1.363       .  A
C3891      C3892   1.381       .  A
C3892      C3893   1.402       .  A
C3892      O3898   1.320       .  A
C3893      C3894   1.403       .  A
C3893      H3902   1.082       .  S
C3894      C3897   1.358       .  A
O3895      C3896   1.332       .  A
C3896      C3897   1.392       .  A
C3897      H3903   1.082       .  S
O3898      C3899   1.330       .  A
C3899      C3900   1.392       .  A
C3900      H3904   1.082       .  S
C3905      C3910   1.380       .  A
C3905      C3906   1.403       .  A
C3905      O3911   1.320       .  A
C3906      C3907   1.403       .  A
C3906      H3917   1.082       .  S
C3907      C3916   1.359       .  A
C3907      C3908   1.380       .  A
C3908      C3909   1.407       .  A
C3908      O3914   1.324       .  A
C3909      C3910   1.408       .  A
C3909      H3918   1.082       .  S
C3910      C3913   1.365       .  A
O3911      C3912   1.331       .  A
C3912      C3913   1.394       .  A
C3913      H3919   1.082       .  S
O3914      C3915   1.333       .  A
C3915      C3916   1.391       .  A
C3916      H3920   1.082       .  S
C3921      C3926   1.379       .  A
C3921      C3922   1.412       .  A
C3921      O3927   1.328       .  A
C3922      C3923   1.412       .  A
C3922      H3933   1.082       .  S
C3923      C3932   1.370       .  A
C3923      C3924   1.380       .  A
C3924      C3925   1.405       .  A
C3924      O3930   1.323       .  A
C3925      C3926   1.405       .  A
C3925      H3934   1.082       .  S
C3926      C3929   1.363       .  A
O3927      C3928   1.336       .  A
C3928      C3929   1.392       .  A
C3929      H3935   1.082       .  S
O3930      C3931   1.332       .  A
C3931      C3932   1.397       .  A
C3932      H3936   1.082       .  S
C3937      C3942   1.380       .  A
C3937      C3938   1.410       .  A
C3937      O3943   1.326       .  A
C3938      C3939   1.410       .  A
C3938      H3949   1.082       .  S
C3939      C3948   1.368       .  A
C3939      C3940   1.381       .  A
C3940      C3941   1.399       .  A
C3940      O3946   1.317       .  A
C3941      C3942   1.399       .  A
C3941      H3950   1.082       .  S
C3942      C3945   1.356       .  A
O3943      C3944   1.334       .  A
C3944      C3945   1.390       .  A
C3945      H3951   1.083       .  S
O3946      C3947   1.328       .  A
C3947      C3948   1.395       .  A
C3948      H3952   1.082       .  S
C3953      C3958   1.381       .  A
C3953      C3954   1.400       .  A
C3953      O3959   1.317       .  A
C3954      C3955   1.400       .  A
C3954      H3965   1.082       .  S
C3955      C3964   1.357       .  A
C3955      C3956   1.380       .  A
C3956      C3957   1.407       .  A
C3956      O3962   1.324       .  A
C3957      C3958   1.407       .  A
C3957      H3966   1.082       .  S
C3958      C3961   1.365       .  A
O3959      C3960   1.329       .  A
C3960      C3961   1.393       .  A
C3961      H3967   1.082       .  S
O3962      C3963   1.333       .  A
C3963      C3964   1.390       .  A
C3964      H3968   1.082       .  S
C3969      C3974   1.380       .  A
C3969      C3970   1.409       .  A
C3969      O3975   1.326       .  A
C3970      C3971   1.409       .  A
C3970      H3981   1.082       .  S
C3971      C3980   1.367       .  A
C3971      C3972   1.380       .  A
C3972      C3973   1.405       .  A
C3972      O3978   1.323       .  A
C3973      C3974   1.405       .  A
C3973      H3982   1.082       .  S
C3974      C3977   1.363       .  A
O3975      C3976   1.334       .  A
C3976      C3977   1.392       .  A
C3977      H3983   1.082       .  S
O3978      C3979   1.332       .  A
C3979      C3980   1.395       .  A
C3980      H3984   1.082       .  S
C3985      C3990   1.381       .  A
C3985      C3986   1.400       .  A
C3985      O3991   1.314       .  A
C3986      C3987   1.399       .  A
C3986      H3997   1.082       .  S
C3987      C3996   1.360       .  A
C3987      C3988   1.381       .  A
C3988      C3989   1.408       .  A
C3988      O3994   1.321       .  A
C3989      C3990   1.406       .  A
C3989      H3998   1.082       .  S
C3990      C3993   1.369       .  A
O3991      C3992   1.328       .  A
C3992      C3993   1.393       .  A
C3993      H3999   1.082       .  S
O3994      C3995   1.333       .  A
C3995      C3996   1.389       .  A
C3996      H4000   1.082       .  S
C4001      C4006   1.380       .  A
C4001      C4002   1.406       .  A
C4001      O4007   1.321       .  A
C4002      C4003   1.405       .  A
C4002      H4013   1.082       .  S
C4003      C4012   1.366       .  A
C4003      C4004   1.380       .  A
C4004      C4005   1.403       .  A
C4004      O4010   1.317       .  A
C4005      C4006   1.402       .  A
C4005      H4014   1.082       .  S
C4006      C4009   1.362       .  A
O4007      C4008   1.332       .  A
C4008      C4009   1.391       .  A
C4009      H4015   1.082       .  S
O4010      C4011   1.331       .  A
C4011      C4012   1.392       .  A
C4012      H4016   1.082       .  S
C4017      C4022   1.380       .  A
C4017      C4018   1.407       .  A
C4017      O4023   1.322       .  A
C4018      C4019   1.406       .  A
C4018      H4029   1.082       .  S
C4019      C4028   1.366       .  A
C4019      C4020   1.380       .  A
C4020      C4021   1.404       .  A
C4020      O4026   1.319       .  A
C4021      C4022   1.403       .  A
C4021      H4030   1.082       .  S
C4022      C4025   1.363       .  A
O4023      C4024   1.333       .  A
C4024      C4025   1.391       .  A
C4025      H4031   1.082       .  S
O4026      C4027   1.331       .  A
C4027      C4028   1.393       .  A
C4028      H4032   1.082       .  S
C4033      C4038   1.381       .  A
C4033      C4034   1.401       .  A
C4033      O4039   1.316       .  A
C4034      C4035   1.400       .  A
C4034      H4045   1.082       .  S
C4035      C4044   1.358       .  A
C4035      C4036   1.381       .  A
C4036      C4037   1.404       .  A
C4036      O4042   1.320       .  A
C4037      C4038   1.404       .  A
C4037      H4046   1.082       .  S
C4038      C4041   1.364       .  A
O4039      C4040   1.329       .  A
C4040      C4041   1.392       .  A
C4041      H4047   1.082       .  S
O4042      C4043   1.330       .  A
C4043      C4044   1.390       .  A
C4044      H4048   1.083       .  S
C4049      C4054   1.380       .  A
C4049      C4050   1.403       .  A
C4049      O4055   1.318   1_655  A
C4050      C4051   1.402       .  A
C4050      H4061   1.082       .  S
C4051      C4060   1.362       .  A
C4051      C4052   1.380       .  A
C4052      C4053   1.409       .  A
C4052      O4058   1.323       .  A
C4053      C4054   1.407       .  A
C4053      H4062   1.082       .  S
C4054      C4057   1.369       .  A
O4055      C4056   1.331       .  A
C4056      C4057   1.393   1_455  A
C4057      H4063   1.082       .  S
O4058      C4059   1.333       .  A
C4059      C4060   1.392       .  A
C4060      H4064   1.082       .  S
C4065      C4070   1.380       .  A
C4065      C4066   1.407       .  A
C4065      O4071   1.324       .  A
C4066      C4067   1.407       .  A
C4066      H4077   1.082       .  S
C4067      C4076   1.365       .  A
C4067      C4068   1.380       .  A
C4068      C4069   1.405       .  A
C4068      O4074   1.322       .  A
C4069      C4070   1.405       .  A
C4069      H4078   1.082       .  S
C4070      C4073   1.363       .  A
O4071      C4072   1.333       .  A
C4072      C4073   1.392       .  A
C4073      H4079   1.082       .  S
O4074      C4075   1.331       .  A
C4075      C4076   1.394       .  A
C4076      H4080   1.082       .  S
C4081      C4086   1.381       .  A
C4081      C4082   1.408       .  A
C4081      O4087   1.324       .  A
C4082      C4083   1.408       .  A
C4082      H4093   1.082       .  S
C4083      C4092   1.366       .  A
C4083      C4084   1.381       .  A
C4084      C4085   1.402       .  A
C4084      O4090   1.320       .  A
C4085      C4086   1.402       .  A
C4085      H4094   1.082       .  S
C4086      C4089   1.359       .  A
O4087      C4088   1.333       .  A
C4088      C4089   1.390       .  A
C4089      H4095   1.082       .  S
O4090      C4091   1.330       .  A
C4091      C4092   1.394       .  A
C4092      H4096   1.082       .  S
C4097      C4102   1.380       .  A
C4097      C4098   1.402   1_556  A
C4097      O4103   1.317       .  A
C4098      C4099   1.401       .  A
C4098      H4109   1.082       .  S
C4099      C4108   1.361       .  A
C4099      C4100   1.380       .  A
C4100      C4101   1.408       .  A
C4100      O4106   1.322       .  A
C4101      C4102   1.407   1_554  A
C4101      H4110   1.082       .  S
C4102      C4105   1.368       .  A
O4103      C4104   1.330       .  A
C4104      C4105   1.393       .  A
C4105      H4111   1.082       .  S
O4106      C4107   1.333       .  A
C4107      C4108   1.390       .  A
C4108      H4112   1.082       .  S
C4113      C4118   1.380       .  A
C4113      C4114   1.408       .  A
C4113      O4119   1.322       .  A
C4114      C4115   1.407   1_554  A
C4114      H4125   1.082       .  S
C4115      C4124   1.367       .  A
C4115      C4116   1.380       .  A
C4116      C4117   1.407       .  A
C4116      O4122   1.322       .  A
C4117      C4118   1.406   1_556  A
C4117      H4126   1.082       .  S
C4118      C4121   1.367       .  A
O4119      C4120   1.333       .  A
C4120      C4121   1.393       .  A
C4121      H4127   1.082       .  S
O4122      C4123   1.332       .  A
C4123      C4124   1.394       .  A
C4124      H4128   1.082       .  S
C4129      C4134   1.380       .  A
C4129      C4130   1.407       .  A
C4129      O4135   1.322       .  A
C4130      C4131   1.406       .  A
C4130      H4141   1.082       .  S
C4131      C4140   1.367       .  A
C4131      C4132   1.381       .  A
C4132      C4133   1.402       .  A
C4132      O4138   1.317       .  A
C4133      C4134   1.401       .  A
C4133      H4142   1.082       .  S
C4134      C4137   1.361       .  A
O4135      C4136   1.333       .  A
C4136      C4137   1.389       .  A
C4137      H4143   1.082       .  S
O4138      C4139   1.330       .  A
C4139      C4140   1.393       .  A
C4140      H4144   1.082       .  S
C4145      C4150   1.381       .  A
C4145      C4146   1.399       .  A
C4145      O4151   1.317       .  A
C4146      C4147   1.399       .  A
C4146      H4157   1.082       .  S
C4147      C4156   1.354       .  A
C4147      C4148   1.380       .  A
C4148      C4149   1.408       .  A
C4148      O4154   1.324       .  A
C4149      C4150   1.408       .  A
C4149      H4158   1.082       .  S
C4150      C4153   1.366       .  A
O4151      C4152   1.328       .  A
C4152      C4153   1.394       .  A
C4153      H4159   1.082       .  S
O4154      C4155   1.333       .  A
C4155      C4156   1.389       .  A
C4156      H4160   1.083       .  S
C4161      C4166   1.380       .  A
C4161      C4162   1.406       .  A
C4161      O4167   1.322       .  A
C4162      C4163   1.406       .  A
C4162      H4173   1.082       .  S
C4163      C4172   1.365   1_655  A
C4163      C4164   1.380       .  A
C4164      C4165   1.405       .  A
C4164      O4170   1.322   1_655  A
C4165      C4166   1.405       .  A
C4165      H4174   1.082       .  S
C4166      C4169   1.363       .  A
O4167      C4168   1.333       .  A
C4168      C4169   1.392       .  A
C4169      H4175   1.082       .  S
O4170      C4171   1.332       .  A
C4171      C4172   1.393       .  A
C4172      H4176   1.082       .  S
C4177      C4182   1.380       .  A
C4177      C4178   1.405       .  A
C4177      O4183   1.319       .  A
C4178      C4179   1.404       .  A
C4178      H4189   1.082       .  S
C4179      C4188   1.365       .  A
C4179      C4180   1.380       .  A
C4180      C4181   1.406       .  A
C4180      O4186   1.320       .  A
C4181      C4182   1.405       .  A
C4181      H4190   1.082       .  S
C4182      C4185   1.366       .  A
O4183      C4184   1.331       .  A
C4184      C4185   1.392       .  A
C4185      H4191   1.082       .  S
O4186      C4187   1.332       .  A
C4187      C4188   1.392       .  A
C4188      H4192   1.082       .  S
C4193      C4198   1.381       .  A
C4193      C4194   1.401       .  A
C4193      O4199   1.317       .  A
C4194      C4195   1.401       .  A
C4194      H4205   1.082       .  S
C4195      C4204   1.359       .  A
C4195      C4196   1.380       .  A
C4196      C4197   1.407       .  A
C4196      O4202   1.324       .  A
C4197      C4198   1.407       .  A
C4197      H4206   1.082       .  S
C4198      C4201   1.365       .  A
O4199      C4200   1.329       .  A
C4200      C4201   1.393       .  A
C4201      H4207   1.082       .  S
O4202      C4203   1.333       .  A
C4203      C4204   1.391       .  A
C4204      H4208   1.082       .  S
C4209      C4214   1.381       .  A
C4209      C4210   1.397       .  A
C4209      O4215   1.315       .  A
C4210      C4211   1.397       .  A
C4210      H4221   1.082       .  S
C4211      C4220   1.351       .  A
C4211      C4212   1.380       .  A
C4212      C4213   1.409       .  A
C4212      O4218   1.326       .  A
C4213      C4214   1.409       .  A
C4213      H4222   1.082       .  S
C4214      C4217   1.367       .  A
O4215      C4216   1.328       .  A
C4216      C4217   1.395       .  A
C4217      H4223   1.082       .  S
O4218      C4219   1.334       .  A
C4219      C4220   1.388       .  A
C4220      H4224   1.083       .  S
C4225      C4230   1.379       .  A
C4225      C4226   1.410       .  A
C4225      O4231   1.325       .  A
C4226      C4227   1.410   1_545  A
C4226      H4237   1.082       .  S
C4227      C4236   1.370       .  A
C4227      C4228   1.380       .  A
C4228      C4229   1.405       .  A
C4228      O4234   1.321       .  A
C4229      C4230   1.404   1_565  A
C4229      H4238   1.082       .  S
C4230      C4233   1.363       .  A
O4231      C4232   1.335       .  A
C4232      C4233   1.391       .  A
C4233      H4239   1.082       .  S
O4234      C4235   1.332       .  A
C4235      C4236   1.396       .  A
C4236      H4240   1.082       .  S
C4241      C4246   1.380       .  A
C4241      C4242   1.409       .  A
C4241      O4247   1.325       .  A
C4242      C4243   1.408   1_554  A
C4242      H4253   1.082   1_554  S
C4243      C4252   1.367       .  A
C4243      C4244   1.381   1_556  A
C4244      C4245   1.399       .  A
C4244      O4250   1.316   1_554  A
C4245      C4246   1.399       .  A
C4245      H4254   1.082       .  S
C4246      C4249   1.357       .  A
O4247      C4248   1.334       .  A
C4248      C4249   1.389       .  A
C4249      H4255   1.082       .  S
O4250      C4251   1.327       .  A
C4251      C4252   1.395       .  A
C4252      H4256   1.083       .  S
C4257      C4262   1.381       .  A
C4257      C4258   1.402       .  A
C4257      O4263   1.319       .  A
C4258      C4259   1.402       .  A
C4258      H4269   1.082       .  S
C4259      C4268   1.359       .  A
C4259      C4260   1.380       .  A
C4260      C4261   1.406       .  A
C4260      O4266   1.323       .  A
C4261      C4262   1.406       .  A
C4261      H4270   1.082       .  S
C4262      C4265   1.364       .  A
O4263      C4264   1.330       .  A
C4264      C4265   1.393       .  A
C4265      H4271   1.082       .  S
O4266      C4267   1.332       .  A
C4267      C4268   1.391       .  A
C4268      H4272   1.082       .  S
C4273      C4278   1.380       .  A
C4273      C4274   1.408       .  A
C4273      O4279   1.324       .  A
C4274      C4275   1.408       .  A
C4274      H4285   1.082       .  S
C4275      C4284   1.367       .  A
C4275      C4276   1.380       .  A
C4276      C4277   1.404       .  A
C4276      O4282   1.321       .  A
C4277      C4278   1.404       .  A
C4277      H4286   1.082       .  S
C4278      C4281   1.363       .  A
O4279      C4280   1.334       .  A
C4280      C4281   1.392       .  A
C4281      H4287   1.082       .  S
O4282      C4283   1.331       .  A
C4283      C4284   1.394       .  A
C4284      H4288   1.082       .  S
C4289      C4294   1.380       .  A
C4289      C4290   1.405       .  A
C4289      O4295   1.322       .  A
C4290      C4291   1.405       .  A
C4290      H4301   1.082       .  S
C4291      C4300   1.362       .  A
C4291      C4292   1.380       .  A
C4292      C4293   1.404       .  A
C4292      O4298   1.322       .  A
C4293      C4294   1.404       .  A
C4293      H4302   1.082       .  S
C4294      C4297   1.361       .  A
O4295      C4296   1.332       .  A
C4296      C4297   1.392       .  A
C4297      H4303   1.082       .  S
O4298      C4299   1.331       .  A
C4299      C4300   1.392       .  A
C4300      H4304   1.082       .  S
C4305      C4310   1.380       .  A
C4305      C4306   1.401       .  A
C4305      O4311   1.315       .  A
C4306      C4307   1.400       .  A
C4306      H4317   1.082       .  S
C4307      C4316   1.361       .  A
C4307      C4308   1.380       .  A
C4308      C4309   1.408       .  A
C4308      O4314   1.321       .  A
C4309      C4310   1.406       .  A
C4309      H4318   1.082       .  S
C4310      C4313   1.370       .  A
O4311      C4312   1.329       .  A
C4312      C4313   1.393       .  A
C4313      H4319   1.082       .  S
O4314      C4315   1.333       .  A
C4315      C4316   1.390       .  A
C4316      H4320   1.082       .  S
