geometry optimzed in LAMMPS
_audit_creation_date              2020-12-01 
_audit_creation_method            'lammps2cif' 
_symmetry_space_group_name_H-M    'P1' 
_symmetry_Int_Tables_number       1 
_symmetry_cell_setting            triclinic 
loop_ 
_symmetry_equiv_pos_as_xyz 
  x,y,z 
_cell_length_a                    43.93538101 
_cell_length_b                    44.81888922580255 
_cell_length_c                    44.19817134354869 
_cell_angle_alpha                 89.70099685925719 
_cell_angle_beta                  90.26598162545993 
_cell_angle_gamma                 90.28053951066694 
loop_ 
_atom_site_label 
_atom_site_type_symbol 
_atom_site_fract_x 
_atom_site_fract_y 
_atom_site_fract_z 
_atom_site_charge 
C1          C  0.80144346  0.81927236  0.02313340     0.79900
N2          N  0.81722177  0.84518281  0.02030717    -0.78400
C3          C  0.82852414  0.85396626  0.99335012     0.82300
N4          N  0.82390670  0.83670259  0.96876362    -0.78400
C5          C  0.80767108  0.81092090  0.97080381     0.82400
N6          N  0.79608584  0.80225480  0.99811681    -0.80100
C7          C  0.76287724  0.22037784  0.03140374     0.79900
N8          N  0.78773517  0.20239700  0.03197861    -0.78400
C9          C  0.79815792  0.18955943  0.00638177     0.82300
N10         N  0.78356956  0.19513138  0.97990354    -0.78400
C11         C  0.75882043  0.21314790  0.97855542     0.82400
N12         N  0.74840163  0.22591227  0.00453855    -0.80100
C13         C  0.19194563  0.84676194  0.02496136     0.79900
N14         N  0.20703206  0.84100392  0.99882094    -0.78400
C15         C  0.19919104  0.85570964  0.97286997     0.82300
N16         N  0.17618108  0.87585444  0.97342457    -0.78400
C17         C  0.16131941  0.88193807  0.99942603     0.82400
N18         N  0.16933951  0.86722011  0.02497781    -0.80100
C19         C  0.78311350  0.05614470  0.79457958     0.79900
N20         N  0.80235218  0.05555002  0.81866495    -0.78400
C21         C  0.81696250  0.03028705  0.82680063     0.82300
N22         N  0.81219454  0.00514234  0.81054805    -0.78400
C23         C  0.79265009  0.00493804  0.78656553     0.82400
N24         N  0.77811883  0.03067770  0.77845827    -0.80100
C25         C  0.95694638  0.21660327  0.78471349     0.79900
N26         N  0.98329324  0.22089258  0.76918918    -0.78400
C27         C  0.00996967  0.21012222  0.78047018     0.82300
N28         N  0.01011089  0.19531450  0.80738600    -0.78400
C29         C  0.98410493  0.19140420  0.82341885     0.82400
N30         N  0.95758681  0.20223697  0.81197504    -0.80100
C31         C  0.95917559  0.85130578  0.79022528     0.79900
N32         N  0.96076964  0.87187698  0.81246220    -0.78400
C33         C  0.98670132  0.88712353  0.81828414     0.82300
N34         N  0.01161386  0.88173790  0.80123232    -0.78400
C35         C  0.01060233  0.86141100  0.77840990     0.82400
N36         N  0.98423985  0.84605590  0.77309049    -0.80100
C37         C  0.19400219  0.06003128  0.81546966     0.79900
N38         N  0.17029096  0.06174194  0.83474706    -0.78400
C39         C  0.15361197  0.03746165  0.84174681     0.82300
N40         N  0.16080257  0.01094817  0.82938848    -0.78400
C41         C  0.18445883  0.00854429  0.80986830     0.82400
N42         N  0.20103089  0.03337345  0.80264100    -0.80100
C43         C  0.95801170  0.80552945  0.17087272     0.79900
N44         N  0.98518000  0.79291092  0.17864966    -0.78400
C45         C  0.01182321  0.80627345  0.17025594     0.82300
N46         N  0.01094503  0.83252697  0.15472908    -0.78400
C47         C  0.98415111  0.84565541  0.14744302     0.82400
N48         N  0.95781205  0.83196676  0.15552822    -0.80100
C49         C  0.77720349  0.04739884  0.20485413     0.79900
N50         N  0.80111260  0.04680248  0.18545980    -0.78400
C51         C  0.80847213  0.02161725  0.17066110     0.82300
N52         N  0.79186852  0.99664472  0.17526015    -0.78400
C53         C  0.76814678  0.99615671  0.19488877     0.82400
N54         N  0.76060031  0.02183391  0.20974026    -0.80100
C55         C  0.95436869  0.20484891  0.23092512     0.79900
N56         N  0.98202389  0.21319061  0.24232634    -0.78400
C57         C  0.00799047  0.20521784  0.22764099     0.82300
N58         N  0.00597727  0.18984026  0.20129138    -0.78400
C59         C  0.97861024  0.18192363  0.18962240     0.82400
N60         N  0.95301460  0.18923929  0.20467851    -0.80100
Zr61       Zr  0.26526059  0.30788282  0.29442707     2.17500
O62         O  0.30144979  0.30576698  0.33641086    -0.51700
O63         O  0.26281961  0.36202942  0.29161938    -0.74900
O64         O  0.31636682  0.31920988  0.27854789    -0.81600
O65         O  0.20253482  0.29169401  0.35224544    -0.83400
O66         O  0.32494158  0.30307812  0.23077146    -0.79000
O67         O  0.24726498  0.31641698  0.34508969    -0.90700
O68         O  0.22574553  0.37618865  0.25896569    -0.76600
O69         O  0.25868422  0.32200731  0.24299514    -0.86100
O70         O  0.21224318  0.31695405  0.28931086    -0.85800
O71         O  0.28422103  0.26634770  0.26616198    -0.72600
O72         O  0.24138476  0.26190045  0.30909945    -0.84700
Zr73       Zr  0.19905952  0.24350759  0.22191599     2.26400
Zr74       Zr  0.27651833  0.28049712  0.21411738     2.06300
Zr75       Zr  0.18809283  0.27071352  0.30271346     2.10000
Zr76       Zr  0.20547065  0.33029647  0.23759388     1.78800
O77         O  0.17999589  0.22818869  0.33628796    -0.93500
O78         O  0.21910079  0.36244580  0.19512700    -0.41300
O79         O  0.18035691  0.28458751  0.25078436    -0.77900
O80         O  0.22308876  0.28952542  0.20737749    -0.96600
O81         O  0.25193839  0.23447679  0.22741925    -0.89900
O82         O  0.20546472  0.22945648  0.27350534    -0.92800
C83         C  0.24699184  0.38211225  0.27803344     1.01000
C84         C  0.22472366  0.30824774  0.36152771     1.13900
C85         C  0.33350596  0.31579643  0.25549062     1.04700
O86         O  0.28479377  0.32028006  0.17728364    -0.94900
O87         O  0.26276858  0.25808790  0.16516824    -0.90700
O88         O  0.21863939  0.23232100  0.17237847    -0.83800
C89         C  0.24110039  0.24080656  0.15599425     1.11300
O90         O  0.29594268  0.21603470  0.31973831    -0.96900
Zr91       Zr  0.25856163  0.22086261  0.27906483     1.88900
O92         O  0.20234363  0.18960200  0.22300302    -0.73500
O93         O  0.31858513  0.25034133  0.19594609    -0.52800
O94         O  0.30443028  0.19865083  0.25835113    -0.97500
O95         O  0.24238619  0.18629482  0.31878293    -0.54700
O96         O  0.24040852  0.17570580  0.25485090    -0.74100
C97         C  0.21894081  0.16981656  0.23607682     0.98300
O98         O  0.16109934  0.24953000  0.18175814    -0.62900
O99         O  0.14453679  0.29621829  0.32439810    -0.57700
O100        O  0.14838037  0.23018504  0.23774192    -0.94400
O101        O  0.13914205  0.25315827  0.28254873    -0.92800
O102        O  0.16079571  0.35444000  0.25856841    -0.93100
O103        O  0.16471057  0.33485336  0.20036048    -0.91900
C104        C  0.13076296  0.23786673  0.25934620     1.17100
H105        H  0.20568052  0.33286793  0.30235926     0.33100
H106        H  0.21872755  0.29388939  0.18637290     0.43900
H107        H  0.19376506  0.21175914  0.27829536     0.37400
H108        H  0.30557024  0.26333242  0.27028446     0.33900
H109        H  0.20839087  0.38143927  0.19897305     0.25700
H110        H  0.33063142  0.26400460  0.18295820     0.31700
H111        H  0.30385079  0.17758582  0.26520210     0.37600
H112        H  0.14970125  0.33826542  0.26923731     0.32000
H113        H  0.14090057  0.28602592  0.34399473     0.30900
H114        H  0.15761835  0.22670181  0.33840280     0.32600
H115        H  0.22358201  0.17663621  0.31111612     0.31500
H116        H  0.15572236  0.31461124  0.19909879     0.35500
H117        H  0.14452026  0.26143979  0.19069393     0.28300
H118        H  0.31092754  0.32582266  0.33734516     0.32500
H119        H  0.30242746  0.19490706  0.31955100     0.35400
H120        H  0.15214490  0.31631083  0.32989042     0.28000
H121        H  0.17048359  0.26333668  0.16688757     0.40800
H122        H  0.29253580  0.33732152  0.18928517     0.30900
H123        H  0.24088055  0.36727178  0.19838085     0.38500
H124        H  0.23536162  0.19924259  0.33539753     0.30400
H125        H  0.33162040  0.24676367  0.21392792     0.30400
H126        H  0.31790882  0.29228584  0.32980919     0.30700
C127        C  0.18919653  0.04999160  0.19866776     0.79900
N128        N  0.20639080  0.02509161  0.20347862    -0.78400
C129        C  0.19947360  0.99925345  0.18854702     0.82300
N130        N  0.17542234  0.99875511  0.16896072    -0.78400
C131        C  0.15832963  0.02341760  0.16417101     0.82400
N132        N  0.16557351  0.04869077  0.17898924    -0.80100
Zr133      Zr  0.26792019  0.74547043  0.28412860     2.17500
O134        O  0.30350632  0.70424284  0.29086864    -0.51700
O135        O  0.26454006  0.75026059  0.33870915    -0.74900
O136        O  0.31993009  0.76142901  0.29310651    -0.81600
O137        O  0.20575411  0.68654393  0.26630130    -0.83400
O138        O  0.32807995  0.80779620  0.27368028    -0.79000
O139        O  0.25146916  0.69405613  0.28944651    -0.90700
O140        O  0.22774753  0.78261332  0.35242671    -0.76600
O141        O  0.26165652  0.79660578  0.29621784    -0.86100
O142        O  0.21514672  0.75074958  0.29430517    -0.85800
O143        O  0.28593850  0.77180052  0.24005851    -0.72600
O144        O  0.24241621  0.72984736  0.23883721    -0.84700
Zr145      Zr  0.19984238  0.81473973  0.21771333     2.26400
Zr146      Zr  0.27885449  0.82355797  0.25238506     2.06300
Zr147      Zr  0.18922373  0.73604075  0.24883955     2.10000
Zr148      Zr  0.20851389  0.80228034  0.30536131     1.78800
O149        O  0.17351320  0.69929959  0.21144586    -0.93500
O150        O  0.22568244  0.84515883  0.33463093    -0.41300
O151        O  0.18155357  0.78758618  0.26071228    -0.77900
O152        O  0.22572209  0.83047238  0.26267582    -0.96600
O153        O  0.25249899  0.80915967  0.20720869    -0.89900
O154        O  0.20569933  0.76359239  0.20537110    -0.92800
C155        C  0.24902094  0.76423387  0.35865084     1.01000
C156        C  0.22914289  0.67732403  0.28126877     1.13900
C157        C  0.33699918  0.78404791  0.28755243     1.04700
O158        O  0.29162173  0.86037646  0.29077011    -0.94900
O159        O  0.26333205  0.87203815  0.23093499    -0.90700
O160        O  0.21831099  0.86428461  0.20641914    -0.83800
C161        C  0.24068001  0.88090211  0.21458056     1.11300
O162        O  0.29719491  0.71977378  0.18974588    -0.96900
Zr163      Zr  0.25833420  0.75786254  0.19535796     1.88900
O164        O  0.20264273  0.81395075  0.16331623    -0.73500
O165        O  0.31897097  0.84010855  0.21816775    -0.52800
O166        O  0.30159012  0.77487507  0.16555812    -0.97500
O167        O  0.23873337  0.71488167  0.16770580    -0.54700
O168        O  0.23947623  0.78147616  0.14935819    -0.74100
C169        C  0.21885390  0.80083214  0.14343056     0.98300
O170        O  0.16066389  0.85281510  0.22330430    -0.62900
O171        O  0.15133330  0.72031321  0.28574917    -0.57700
O172        O  0.14970818  0.79735281  0.20384408    -0.94400
O173        O  0.14068037  0.75244325  0.22642570    -0.92800
O174        O  0.16359553  0.78463749  0.33230146    -0.93100
O175        O  0.16883821  0.83987056  0.30864000    -0.91900
C176        C  0.13244297  0.77508323  0.21028414     1.17100
H177        H  0.20907721  0.73819960  0.31108173     0.33100
H178        H  0.22169317  0.85125626  0.26655100     0.43900
H179        H  0.19355308  0.75835127  0.18794660     0.37400
H180        H  0.30713661  0.76765980  0.23642518     0.33900
H181        H  0.21752957  0.84174300  0.35521675     0.25700
H182        H  0.33090102  0.85487513  0.22992841     0.31700
H183        H  0.30107579  0.79691044  0.16695516     0.37600
H184        H  0.16832232  0.76390904  0.33848932     0.32000
H185        H  0.13904430  0.73837948  0.28943562     0.30900
H186        H  0.15437764  0.69070435  0.21950235     0.32600
H187        H  0.21932978  0.72152935  0.15848474     0.31500
H188        H  0.17108010  0.85215771  0.29011769     0.35500
H189        H  0.14508459  0.84367519  0.23660696     0.28300
H190        H  0.31314978  0.70725737  0.31093582     0.32500
H191        H  0.30493371  0.71624323  0.21052794     0.35400
H192        H  0.13752734  0.70681711  0.27444235     0.28000
H193        H  0.16992551  0.86858668  0.23602359     0.40800
H194        H  0.31205068  0.86785932  0.28504913     0.30900
H195        H  0.24793409  0.84244986  0.33686631     0.38500
H196        H  0.23258991  0.70043432  0.18359489     0.30400
H197        H  0.33269385  0.82277355  0.21615511     0.30400
H198        H  0.31996420  0.70755150  0.27597194     0.30700
Zr199      Zr  0.76819158  0.24255576  0.22498994     2.17500
O200        O  0.80639720  0.23434163  0.18597687    -0.51700
O201        O  0.76409169  0.18827095  0.22633038    -0.74900
O202        O  0.81885596  0.23413037  0.24453906    -0.81600
O203        O  0.70791660  0.26122759  0.16378941    -0.83400
O204        O  0.82625375  0.25484006  0.29077300    -0.79000
O205        O  0.75630993  0.24516372  0.17140591    -0.90700
O206        O  0.72980199  0.17391565  0.26176292    -0.76600
O207        O  0.76186833  0.23123632  0.27709806    -0.86100
O208        O  0.71579639  0.23008191  0.22987464    -0.85800
O209        O  0.78456910  0.28682159  0.25135172    -0.72600
O210        O  0.74143959  0.28623847  0.20866974    -0.84700
Zr211      Zr  0.69719180  0.30722876  0.29314583     2.26400
Zr212      Zr  0.77658795  0.27551752  0.30403664     2.06300
Zr213      Zr  0.68866627  0.27391915  0.21432111     2.10000
Zr214      Zr  0.70928334  0.21973346  0.28240314     1.78800
O215        O  0.66814178  0.30784807  0.17627584    -0.93500
O216        O  0.72980792  0.19439869  0.32690684    -0.41300
O217        O  0.68125751  0.26307458  0.26693175    -0.77900
O218        O  0.72361421  0.26351421  0.31035075    -0.96600
O219        O  0.74955069  0.31898913  0.28799392    -0.89900
O220        O  0.70363310  0.31816195  0.24090739    -0.92800
C221        C  0.74961202  0.16820826  0.24143241     1.01000
C222        C  0.73386461  0.25209226  0.15407587     1.13900
C223        C  0.83541204  0.24019671  0.26762387     1.04700
O224        O  0.79000419  0.23998690  0.34369286    -0.94900
O225        O  0.76122300  0.29877028  0.35184982    -0.90700
O226        O  0.71600350  0.32161547  0.34242028    -0.83800
C227        C  0.73871856  0.31537738  0.35960908     1.11300
O228        O  0.79698465  0.33430058  0.19889836    -0.96900
Zr229      Zr  0.75620562  0.33006631  0.23592399     1.88900
O230        O  0.69823924  0.36152459  0.28986968    -0.73500
O231        O  0.81483535  0.31235794  0.31854038    -0.52800
O232        O  0.79814387  0.35976389  0.25613691    -0.97500
O233        O  0.73887525  0.35712484  0.19110711    -0.54700
O234        O  0.73476550  0.37575253  0.25658322    -0.74100
C235        C  0.71368139  0.38159103  0.27569768     0.98300
O236        O  0.65905861  0.30108527  0.33277581    -0.62900
O237        O  0.65470980  0.23329432  0.19972456    -0.57700
O238        O  0.64634850  0.31713221  0.27501489    -0.94400
O239        O  0.63884602  0.29269346  0.23049882    -0.92800
O240        O  0.66498224  0.19197152  0.26448360    -0.93100
O241        O  0.67002415  0.21040958  0.32005177    -0.91900
C242        C  0.62963981  0.30872041  0.25275569     1.17100
H243        H  0.71019866  0.21327131  0.21741203     0.33100
H244        H  0.71930745  0.25998446  0.33146425     0.43900
H245        H  0.69109552  0.33475409  0.23467352     0.37400
H246        H  0.80581780  0.29086416  0.24753062     0.33900
H247        H  0.72146928  0.17386717  0.32584023     0.25700
H248        H  0.82727854  0.30230573  0.33426242     0.31700
H249        H  0.79438231  0.36072722  0.27817975     0.37600
H250        H  0.66974517  0.17074483  0.26851528     0.32000
H251        H  0.64086569  0.23073514  0.21717045     0.30900
H252        H  0.65152691  0.29646353  0.16637812     0.32600
H253        H  0.71941154  0.36641140  0.19703789     0.31500
H254        H  0.65835057  0.22922355  0.32083533     0.35500
H255        H  0.64360591  0.28732784  0.32421210     0.28300
H256        H  0.81586057  0.21484331  0.19069435     0.32500
H257        H  0.80027331  0.35598533  0.19590077     0.35400
H258        H  0.64172553  0.24183334  0.18352828     0.28000
H259        H  0.66906516  0.28902863  0.34877445     0.40800
H260        H  0.80743261  0.24933635  0.35437563     0.30900
H261        H  0.75178125  0.19205982  0.32271533     0.38500
H262        H  0.73290152  0.34134922  0.17661139     0.30400
H263        H  0.82846651  0.31413112  0.30084135     0.30400
H264        H  0.82261316  0.24939011  0.18945640     0.30700
Zr265      Zr  0.70269077  0.73671748  0.28204723     2.17500
O266        O  0.66402668  0.69815483  0.27454810    -0.51700
O267        O  0.70220014  0.73814267  0.33710634    -0.74900
O268        O  0.72185943  0.68747649  0.29364252    -0.81600
O269        O  0.64294753  0.79761959  0.27030835    -0.83400
O270        O  0.76754728  0.68070169  0.27058393    -0.79000
O271        O  0.65105252  0.75190663  0.29153397    -0.90700
O272        O  0.73477321  0.77454400  0.35212856    -0.76600
O273        O  0.75496739  0.74296688  0.29468987    -0.86100
O274        O  0.70715710  0.78805244  0.29464022    -0.85800
O275        O  0.72993853  0.72248323  0.23749796    -0.72600
O276        O  0.68626477  0.76388623  0.23803893    -0.84700
Zr277      Zr  0.77205797  0.80874929  0.21999945     2.26400
Zr278      Zr  0.78262707  0.72976932  0.24996201     2.06300
Zr279      Zr  0.69185371  0.81553216  0.25057538     2.10000
Zr280      Zr  0.75936935  0.79438997  0.30729525     1.78800
O281        O  0.65341209  0.82783265  0.21266730    -0.93500
O282        O  0.80067847  0.77488001  0.33843868    -0.41300
O283        O  0.74421656  0.82305528  0.26395857    -0.77900
O284        O  0.78865762  0.78125287  0.26370777    -0.96600
O285        O  0.76709514  0.75782878  0.20653837    -0.89900
O286        O  0.72001603  0.80253449  0.20637471    -0.92800
C287        C  0.71505201  0.75410832  0.35765673     1.01000
C288        C  0.63409981  0.77424977  0.28494578     1.13900
C289        C  0.74458645  0.67134522  0.28612862     1.04700
O290        O  0.82441618  0.71623373  0.28355422    -0.94900
O291        O  0.83094845  0.74615726  0.22671475    -0.90700
O292        O  0.82224434  0.79221881  0.20667974    -0.83800
C293        C  0.83925754  0.76958447  0.21171548     1.11300
O294        O  0.67774865  0.71107635  0.18802709    -0.96900
Zr295      Zr  0.71493756  0.75112121  0.19403431     1.88900
O296        O  0.77261677  0.80713835  0.16527065    -0.73500
O297        O  0.79359095  0.69204448  0.21209180    -0.52800
O298        O  0.73333907  0.70950599  0.16410398    -0.97500
O299        O  0.67093568  0.76924166  0.16572821    -0.54700
O300        O  0.73934577  0.77172676  0.14921598    -0.74100
C301        C  0.75980459  0.79169123  0.14435930     0.98300
O302        O  0.81107470  0.84704831  0.22776922    -0.62900
O303        O  0.67358464  0.85367806  0.28501012    -0.57700
O304        O  0.75407310  0.85871089  0.21047126    -0.94400
O305        O  0.70847195  0.86527695  0.23353774    -0.92800
O306        O  0.74283902  0.83659255  0.33740675    -0.93100
O307        O  0.79750073  0.83348613  0.31376011    -0.91900
C308        C  0.73158217  0.87494455  0.21849771     1.17100
H309        H  0.69424171  0.79309022  0.31145510     0.33100
H310        H  0.80984659  0.78544359  0.26781338     0.43900
H311        H  0.71464220  0.81520113  0.18944515     0.37400
H312        H  0.72607851  0.70171190  0.23312022     0.33900
H313        H  0.80043856  0.78729625  0.35690704     0.25700
H314        H  0.79407385  0.70307929  0.19263000     0.31700
H315        H  0.72582796  0.71344278  0.14331127     0.37600
H316        H  0.72175267  0.84053382  0.33056273     0.32000
H317        H  0.65482351  0.86135523  0.27528012     0.30900
H318        H  0.66356289  0.84188981  0.19857038     0.32600
H319        H  0.67045758  0.75703901  0.14712211     0.31500
H320        H  0.80840666  0.83443985  0.29424634     0.35500
H321        H  0.80199418  0.86152413  0.24192489     0.28300
H322        H  0.66319221  0.68677025  0.29379520     0.32500
H323        H  0.66113410  0.71615922  0.20212761     0.35400
H324        H  0.66632892  0.84266279  0.30308175     0.28000
H325        H  0.82722043  0.83734345  0.23997340     0.40800
H326        H  0.82177098  0.72908217  0.30148032     0.30900
H327        H  0.79343697  0.75504188  0.34535512     0.38500
H328        H  0.67674706  0.78944235  0.15860446     0.30400
H329        H  0.81503038  0.68639581  0.21589429     0.30400
H330        H  0.67281424  0.68418538  0.25969593     0.30700
C331        C  0.20506601  0.21325900  0.03523748     0.79900
N332        N  0.21401523  0.22635350  0.00889159    -0.78400
C333        C  0.19694450  0.22299077  0.98333537     0.82300
N334        N  0.17069731  0.20663215  0.98436089    -0.78400
C335        C  0.16168873  0.19319530  0.01048198     0.82400
N336        N  0.17904040  0.19674411  0.03567482    -0.80100
Zr337      Zr  0.19783738  0.24892705  0.79117574     2.17500
O338        O  0.16205158  0.23145274  0.82956887    -0.51700
O339        O  0.20915840  0.19605027  0.79184874    -0.74900
O340        O  0.14701894  0.23866150  0.77207676    -0.81600
O341        O  0.25386845  0.27154208  0.85436446    -0.83400
O342        O  0.14076544  0.25834445  0.72501022    -0.79000
O343        O  0.20589179  0.25505382  0.84479425    -0.90700
O344        O  0.24501347  0.18399447  0.75738913    -0.76600
O345        O  0.20631940  0.23842001  0.73931879    -0.86100
O346        O  0.25115223  0.24037718  0.78781113    -0.85800
O347        O  0.17922887  0.29230103  0.76479335    -0.72600
O348        O  0.22128984  0.29401721  0.80855248    -0.84700
Zr349      Zr  0.26689799  0.31778095  0.72541411     2.26400
Zr350      Zr  0.18938998  0.28207991  0.71248353     2.06300
Zr351      Zr  0.27487670  0.28548367  0.80476104     2.10000
Zr352      Zr  0.25986677  0.23092820  0.73542723     1.78800
O353        O  0.29215196  0.32204099  0.84170568    -0.93500
O354        O  0.24175237  0.20101088  0.69305628    -0.41300
O355        O  0.28493774  0.27518060  0.75257387    -0.77900
O356        O  0.24299775  0.27331400  0.70723392    -0.96600
O357        O  0.21382781  0.32696684  0.72891764    -0.89900
O358        O  0.25812870  0.32838214  0.77731749    -0.92800
C359        C  0.22622034  0.17727105  0.77830091     1.01000
C360        C  0.22754923  0.26200913  0.86296686     1.13900
C361        C  0.13106279  0.24407468  0.74838069     1.04700
O362        O  0.17708154  0.24767755  0.67172852    -0.94900
O363        O  0.20586414  0.30516966  0.66490284    -0.90700
O364        O  0.24967445  0.33053537  0.67499549    -0.83800
C365        C  0.22813181  0.32233080  0.65715911     1.11300
O366        O  0.16262449  0.33958552  0.81628657    -0.96900
Zr367      Zr  0.20486361  0.33694278  0.78081260     1.88900
O368        O  0.26456163  0.37096153  0.73028104    -0.73500
O369        O  0.15001222  0.31755390  0.69794862    -0.52800
O370        O  0.16377111  0.36500073  0.75697005    -0.97500
O371        O  0.21813224  0.36426875  0.82663202    -0.54700
O372        O  0.22729620  0.38331975  0.76332153    -0.74100
C373        C  0.24917319  0.38986594  0.74539716     0.98300
O374        O  0.30735858  0.31488209  0.68774559    -0.62900
O375        O  0.30955793  0.24770017  0.82432557    -0.57700
O376        O  0.31688208  0.33025559  0.74435531    -0.94400
O377        O  0.32452748  0.30562749  0.78889166    -0.92800
O378        O  0.30801534  0.20902635  0.75126960    -0.93100
O379        O  0.29744262  0.22702728  0.69533392    -0.91900
C380        C  0.33367635  0.32199272  0.76661830     1.17100
H381        H  0.25781777  0.22417667  0.80065919     0.33100
H382        H  0.24809492  0.27019458  0.68627399     0.43900
H383        H  0.26967270  0.34552512  0.78398689     0.37400
H384        H  0.15773234  0.29507493  0.76817221     0.33900
H385        H  0.25372837  0.18237345  0.69418620     0.25700
H386        H  0.14086260  0.30912281  0.67932771     0.31700
H387        H  0.16548482  0.38536041  0.76543227     0.37600
H388        H  0.30746596  0.20922966  0.77364686     0.32000
H389        H  0.32814994  0.24979336  0.81191434     0.30900
H390        H  0.31013073  0.31278984  0.85147408     0.32600
H391        H  0.23658141  0.37596187  0.82146599     0.31500
H392        H  0.31064283  0.24481096  0.69785579     0.35500
H393        H  0.32277944  0.30130772  0.69657925     0.28300
H394        H  0.15486554  0.21156126  0.82284906     0.32500
H395        H  0.15730464  0.36098778  0.81750184     0.35400
H396        H  0.31565055  0.25499144  0.84458432     0.28000
H397        H  0.29873497  0.30324699  0.67073745     0.40800
H398        H  0.19694766  0.24292287  0.66247907     0.30900
H399        H  0.22084348  0.19484463  0.69864336     0.38500
H400        H  0.22551461  0.34878066  0.84089737     0.30400
H401        H  0.13395240  0.31541213  0.71346048     0.30400
H402        H  0.14403341  0.24456787  0.82813400     0.30700
Zr403      Zr  0.19318421  0.81425371  0.78627650     2.17500
O404        O  0.15150388  0.81040736  0.82237932    -0.51700
O405        O  0.19597188  0.86786528  0.78529389    -0.74900
O406        O  0.21019976  0.82620749  0.83669349    -0.81600
O407        O  0.13662167  0.80597659  0.72002214    -0.83400
O408        O  0.25608629  0.80432880  0.84553655    -0.79000
O409        O  0.14333833  0.82598264  0.76684525    -0.90700
O410        O  0.23197736  0.88303201  0.75203715    -0.76600
O411        O  0.24580043  0.82582779  0.78222507    -0.86100
O412        O  0.20041296  0.82672506  0.73453000    -0.85800
O413        O  0.21901592  0.77052628  0.80402477    -0.72600
O414        O  0.17634015  0.77139187  0.75878269    -0.84700
Zr415      Zr  0.26375641  0.75068385  0.71916961     2.26400
Zr416      Zr  0.27220420  0.78170102  0.79799206     2.06300
Zr417      Zr  0.18534305  0.78339651  0.70667889     2.10000
Zr418      Zr  0.25305206  0.83782448  0.73036792     1.78800
O419        O  0.14765733  0.74577297  0.69295813    -0.93500
O420        O  0.29672296  0.86578469  0.74942952    -0.41300
O421        O  0.23840328  0.79469878  0.70181341    -0.77900
O422        O  0.28048410  0.79416006  0.74588548    -0.96600
O423        O  0.25628255  0.73837957  0.77087858    -0.89900
O424        O  0.21102495  0.73949140  0.72338064    -0.92800
C425        C  0.21114278  0.88821768  0.77155439     1.01000
C426        C  0.12741654  0.82081905  0.74304208     1.13900
C427        C  0.23290594  0.81970340  0.85372969     1.04700
O428        O  0.31291440  0.81540406  0.81359158    -0.94900
O429        O  0.32093601  0.75946555  0.78304143    -0.90700
O430        O  0.31293410  0.73561228  0.73834928    -0.83800
C431        C  0.32973882  0.74308548  0.76087790     1.11300
O432        O  0.16252405  0.72829442  0.81278914    -0.96900
Zr433      Zr  0.20327192  0.72800919  0.77550204     1.88900
O434        O  0.25916086  0.69718211  0.72102814    -0.73500
O435        O  0.28454287  0.74542336  0.83734622    -0.52800
O436        O  0.22078880  0.69952563  0.81929351    -0.97500
O437        O  0.15973708  0.69818449  0.75910025    -0.54700
O438        O  0.22340850  0.68234904  0.75481492    -0.74100
C439        C  0.24359405  0.67707310  0.73474728     0.98300
O440        O  0.30457773  0.75695954  0.68232338    -0.62900
O441        O  0.17104367  0.81666034  0.66525114    -0.57700
O442        O  0.24779700  0.73955931  0.66814397    -0.94400
O443        O  0.20395537  0.76465528  0.65820425    -0.92800
O444        O  0.23387043  0.86559455  0.68686828    -0.93100
O445        O  0.29232128  0.84489057  0.69228729    -0.91900
C446        C  0.22655483  0.74834171  0.65026271     1.17100
H447        H  0.18833175  0.84373381  0.72857100     0.33100
H448        H  0.30187042  0.79764286  0.74224120     0.43900
H449        H  0.20530093  0.72284946  0.71074788     0.37400
H450        H  0.21435448  0.76684272  0.82504718     0.33900
H451        H  0.29493589  0.88577793  0.73996347     0.25700
H452        H  0.29699801  0.75667793  0.85216725     0.31700
H453        H  0.24270370  0.69611123  0.81561196     0.37600
H454        H  0.22612317  0.85010268  0.67288026     0.32000
H455        H  0.15147247  0.80859414  0.65758375     0.30900
H456        H  0.13860977  0.75319460  0.67381043     0.32600
H457        H  0.16212729  0.67879613  0.76967620     0.31500
H458        H  0.29205214  0.82615749  0.68052345     0.35500
H459        H  0.29616913  0.77030107  0.66646740     0.28300
H460        H  0.14996180  0.83044544  0.83158381     0.32500
H461        H  0.16153380  0.70774669  0.82106123     0.35400
H462        H  0.16562946  0.83573898  0.67499300     0.28000
H463        H  0.32009664  0.76950158  0.69253769     0.40800
H464        H  0.32377233  0.82048812  0.79465715     0.30900
H465        H  0.29222313  0.86914069  0.77107585     0.38500
H466        H  0.16366039  0.69366733  0.73757146     0.30400
H467        H  0.26504484  0.74160760  0.84785547     0.30400
H468        H  0.15901816  0.79728637  0.83885742     0.30700
Zr469      Zr  0.76643925  0.24992584  0.78844874     2.17500
O470        O  0.80759256  0.24226752  0.82497122    -0.51700
O471        O  0.76251550  0.19591166  0.78347626    -0.74900
O472        O  0.74936972  0.24001861  0.83963408    -0.81600
O473        O  0.82720422  0.26746988  0.72729598    -0.83400
O474        O  0.70335676  0.26135513  0.84750458    -0.79000
O475        O  0.81944312  0.24901133  0.77467815    -0.90700
O476        O  0.72896398  0.18351170  0.74639001    -0.76600
O477        O  0.71413691  0.23858032  0.78113006    -0.86100
O478        O  0.76153827  0.24041370  0.73576422    -0.85800
O479        O  0.74060286  0.29360521  0.80639606    -0.72600
O480        O  0.78339738  0.29452678  0.76324665    -0.84700
Zr481      Zr  0.69782285  0.31771066  0.72102361     2.26400
Zr482      Zr  0.68769070  0.28193795  0.79836315     2.06300
Zr483      Zr  0.77706290  0.28529693  0.71022040     2.10000
Zr484      Zr  0.70891219  0.23035451  0.72806226     1.78800
O485        O  0.81608100  0.32079180  0.69448902    -0.93500
O486        O  0.66545276  0.19905756  0.74142837    -0.41300
O487        O  0.72409093  0.27499780  0.70226509    -0.77900
O488        O  0.68099180  0.27268506  0.74531105    -0.96600
O489        O  0.70385501  0.32693901  0.77357798    -0.89900
O490        O  0.75046260  0.32866640  0.72715504    -0.92800
C491        C  0.74793173  0.17677466  0.76734648     1.01000
C492        C  0.83668121  0.25599859  0.75240831     1.13900
C493        C  0.72675674  0.24657473  0.85650861     1.04700
O494        O  0.65155422  0.24259640  0.81121721    -0.94900
O495        O  0.63828899  0.30252773  0.78250228    -0.90700
O496        O  0.64718684  0.32823726  0.73890387    -0.83800
C497        C  0.62971725  0.31933826  0.76032204     1.11300
O498        O  0.79516730  0.33701694  0.81955604    -0.96900
Zr499      Zr  0.75658714  0.33778774  0.77973681     1.88900
O500        O  0.69947923  0.37131741  0.72662055    -0.73500
O501        O  0.66893911  0.31479109  0.83780869    -0.52800
O502        O  0.74057293  0.36794898  0.82240185    -0.97500
O503        O  0.80080202  0.36583659  0.76199008    -0.54700
O504        O  0.73489051  0.38455044  0.76159831    -0.74100
C505        C  0.71384659  0.39082740  0.74240402     0.98300
O506        O  0.65730285  0.31513756  0.68294710    -0.62900
O507        O  0.78941112  0.24874792  0.67156231    -0.57700
O508        O  0.71571186  0.33134027  0.67124149    -0.94400
O509        O  0.76047613  0.30783126  0.66207752    -0.92800
O510        O  0.73071135  0.20690389  0.68363248    -0.93100
O511        O  0.66947091  0.22770755  0.68925550    -0.91900
C512        C  0.73782196  0.32424265  0.65391304     1.17100
H513        H  0.77402193  0.22378927  0.72975492     0.33100
H514        H  0.65979898  0.26905243  0.74071496     0.43900
H515        H  0.75635474  0.34597919  0.71540012     0.37400
H516        H  0.74485483  0.29684273  0.82759203     0.33900
H517        H  0.66893231  0.17994064  0.73087978     0.25700
H518        H  0.65560280  0.30193261  0.85039027     0.31700
H519        H  0.72497689  0.35566155  0.83275235     0.37600
H520        H  0.73093518  0.22278873  0.66798282     0.32000
H521        H  0.80340892  0.25936811  0.65766163     0.30900
H522        H  0.82759874  0.31030295  0.67858563     0.32600
H523        H  0.79334726  0.37796392  0.74472432     0.31500
H524        H  0.67082320  0.24707228  0.67845504     0.35500
H525        H  0.66642407  0.30595512  0.66482532     0.28300
H526        H  0.80356854  0.22281681  0.83494077     0.32500
H527        H  0.80149832  0.35807013  0.82224099     0.35400
H528        H  0.80235415  0.23378962  0.68190490     0.28000
H529        H  0.64305640  0.29957857  0.69037279     0.40800
H530        H  0.64108889  0.23796386  0.79191269     0.30900
H531        H  0.66845499  0.19425312  0.76312531     0.38500
H532        H  0.81409666  0.35069161  0.75268885     0.30400
H533        H  0.68683136  0.31891801  0.85084916     0.30400
H534        H  0.80473804  0.25745434  0.84090444     0.30700
Zr535      Zr  0.76410037  0.81787978  0.78731953     2.17500
O536        O  0.76118274  0.85659473  0.82575569    -0.51700
O537        O  0.81887362  0.81671978  0.78349428    -0.74900
O538        O  0.77817241  0.79848585  0.83670070    -0.81600
O539        O  0.74785545  0.87697724  0.72743789    -0.83400
O540        O  0.75728583  0.75239069  0.84354588    -0.79000
O541        O  0.77369730  0.86844897  0.77136470    -0.90700
O542        O  0.83274828  0.78706129  0.74460462    -0.76600
O543        O  0.77787301  0.76767745  0.77841991    -0.86100
O544        O  0.77294863  0.81532431  0.73433216    -0.85800
O545        O  0.72137205  0.78941411  0.80497682    -0.72600
O546        O  0.71760322  0.83341611  0.76360225    -0.84700
Zr547      Zr  0.69672346  0.74954798  0.71866092     2.26400
Zr548      Zr  0.73514236  0.73865843  0.79483265     2.06300
Zr549      Zr  0.72612777  0.82923384  0.71036270     2.10000
Zr550      Zr  0.78602948  0.76488888  0.72534338     1.78800
O551        O  0.68327549  0.86285919  0.70340502    -0.93500
O552        O  0.81867911  0.72359870  0.74053098    -0.41300
O553        O  0.73931964  0.77830766  0.70088929    -0.77900
O554        O  0.74391905  0.73452998  0.74147788    -0.96600
O555        O  0.68800518  0.75288036  0.77145875    -0.89900
O556        O  0.68337443  0.80023724  0.72683217    -0.92800
C557        C  0.83892887  0.80485132  0.76641794     1.01000
C558        C  0.76481293  0.88544050  0.74969902     1.13900
C559        C  0.77245766  0.77520405  0.85276072     1.04700
O560        O  0.77666429  0.70381285  0.80362447    -0.94900
O561        O  0.71499260  0.69016395  0.77949665    -0.90700
O562        O  0.68832080  0.69875071  0.73613451    -0.83800
C563        C  0.69775143  0.68165070  0.75760493     1.13900
O564        O  0.67330015  0.84145174  0.81942885    -0.96900
Zr565      Zr  0.67523146  0.80370570  0.77993855     1.88900
O566        O  0.64169367  0.75201713  0.72234845    -0.73500
O567        O  0.70378193  0.71926104  0.83586467    -0.52800
O568        O  0.65087503  0.78070039  0.82369989    -0.97500
O569        O  0.64245335  0.84571575  0.76707860    -0.54700
O570        O  0.62813025  0.78267826  0.76059746    -0.74100
C571        C  0.62174605  0.76470530  0.73901741     0.98300
O572        O  0.69619895  0.70904180  0.68199126    -0.62900
O573        O  0.75302993  0.85304920  0.66855966    -0.57700
O574        O  0.68665309  0.76682343  0.66758287    -0.94400
O575        O  0.70945563  0.81194677  0.66022463    -0.92800
O576        O  0.80937921  0.78727489  0.68069439    -0.93100
O577        O  0.79151576  0.72948568  0.68417734    -0.91900
C578        C  0.69452074  0.78896391  0.65082297     1.17100
H579        H  0.78920785  0.82858295  0.72823233     0.33100
H580        H  0.74831802  0.71411613  0.73624272     0.43900
H581        H  0.66545934  0.80565623  0.71539209     0.37400
H582        H  0.71851175  0.79240102  0.82639376     0.33900
H583        H  0.83784819  0.72686038  0.72926021     0.25700
H584        H  0.68437254  0.71320554  0.82615538     0.31700
H585        H  0.62939558  0.78721665  0.82256970     0.37600
H586        H  0.82103595  0.80471174  0.68819536     0.32000
H587        H  0.74262254  0.87239451  0.66551627     0.30900
H588        H  0.67927782  0.86282038  0.68134622     0.32600
H589        H  0.62244648  0.84066509  0.77602764     0.31500
H590        H  0.77052972  0.72640348  0.67650783     0.35500
H591        H  0.67615861  0.71015477  0.67170332     0.28300
H592        H  0.78140212  0.85685483  0.83575584     0.32500
H593        H  0.65226304  0.84078124  0.82734313     0.35400
H594        H  0.77334105  0.85836110  0.67675896     0.28000
H595        H  0.71125790  0.71473470  0.66636553     0.40800
H596        H  0.77661964  0.69069180  0.78567194     0.30900
H597        H  0.82414306  0.72775308  0.76186639     0.38500
H598        H  0.63907070  0.84429523  0.74498090     0.30400
H599        H  0.71356307  0.70026283  0.84189127     0.30400
H600        H  0.74703870  0.84865845  0.84124411     0.30700
C601        C  0.50093197  0.72079803  0.71310748     0.79900
N602        N  0.47568140  0.72534672  0.73032110    -0.78400
C603        C  0.44953264  0.70970544  0.72456733     0.82300
N604        N  0.44898074  0.68973362  0.70148618    -0.78400
C605        C  0.47395306  0.68521124  0.68428657     0.82400
N606        N  0.49965521  0.70078142  0.69025334    -0.80100
C607        C  0.28755043  0.50683822  0.71347616     0.79900
N608        N  0.30826589  0.50598085  0.69085453    -0.78400
C609        C  0.31638004  0.53116413  0.67602358     0.82300
N610        N  0.30369456  0.55730084  0.68400683    -0.78400
C611        C  0.28259444  0.55852804  0.70625176     0.82400
N612        N  0.27432574  0.53309537  0.72094107    -0.80100
C613        C  0.50754778  0.35195077  0.72602587     0.79900
N614        N  0.48137675  0.34515587  0.74110911    -0.78400
C615        C  0.45400729  0.35425831  0.72978085     0.82300
N616        N  0.45302538  0.36945863  0.70306904    -0.78400
C617        C  0.47880278  0.37552885  0.68737206     0.82400
N618        N  0.50596650  0.36691146  0.69916305    -0.80100
C619        C  0.67173517  0.51060016  0.71749217     0.79900
N620        N  0.67813570  0.53618471  0.73303259    -0.78400
C621        C  0.66507577  0.56247154  0.72404999     0.82300
N622        N  0.64628635  0.56278268  0.69950952    -0.78400
C623        C  0.64036778  0.53760821  0.68380575     0.82400
N624        N  0.65326358  0.51180457  0.69287989    -0.80100
C625        C  0.51070736  0.34875000  0.28473452     0.79900
N626        N  0.48297280  0.33979970  0.27397112    -0.78400
C627        C  0.45701294  0.34854882  0.28816457     0.82300
N628        N  0.45930158  0.36545132  0.31356142    -0.78400
C629        C  0.48665427  0.37442236  0.32447581     0.82400
N630        N  0.51230601  0.36626395  0.30978792    -0.80100
C631        C  0.68963150  0.50373540  0.31265060     0.79900
N632        N  0.66643078  0.50678245  0.33259669    -0.78400
C633        C  0.66068393  0.53328478  0.34594932     0.82300
N634        N  0.67828081  0.55729866  0.33906778    -0.78400
C635        C  0.70124292  0.55507714  0.31861602     0.82400
N636        N  0.70691274  0.52816291  0.30543218    -0.80100
C637        C  0.51161995  0.74606809  0.32129506     0.79900
N638        N  0.48509856  0.75878846  0.31166047    -0.78400
C639        C  0.45784167  0.74756625  0.32130091     0.82300
N640        N  0.45744567  0.72335603  0.34007433    -0.78400
C641        C  0.48369098  0.71056559  0.34963799     0.82400
N642        N  0.51056194  0.72218664  0.34031210    -0.80100
C643        C  0.27579224  0.50616695  0.30664364     0.79900
N644        N  0.30067930  0.50936010  0.32466484    -0.78400
C645        C  0.30870761  0.53601828  0.33621835     0.82300
N646        N  0.29173124  0.56023577  0.32951476    -0.78400
C647        C  0.26713638  0.55820047  0.31076989     0.82400
N648        N  0.25895560  0.53089242  0.29929051    -0.80100
C649        C  0.67470377  0.73236844  0.48128698     0.79900
N650        N  0.65586505  0.70881544  0.48569395    -0.78400
C651        C  0.64230764  0.70372160  0.51250782     0.82300
N652        N  0.64749922  0.72264057  0.53571192    -0.78400
C653        C  0.66670801  0.74631562  0.53237449     0.82400
N654        N  0.68043087  0.75124427  0.50497533    -0.80100
C655        C  0.70673397  0.35575117  0.47829234     0.79900
N656        N  0.68043421  0.37166341  0.47744579    -0.78400
C657        C  0.66626144  0.37998171  0.50324126     0.82300
N658        N  0.67896525  0.37247386  0.53022748    -0.78400
C659        C  0.70536253  0.35675758  0.53173387     0.82400
N660        N  0.71912208  0.34814730  0.50560084    -0.80100
C661        C  0.27898107  0.72763733  0.48041880     0.79900
N662        N  0.26166577  0.73287395  0.50543195    -0.78400
C663        C  0.26750890  0.71777995  0.53178018     0.82300
N664        N  0.29067148  0.69778304  0.53274803    -0.78400
C665        C  0.30798339  0.69277023  0.50813205     0.82400
N666        N  0.30187795  0.70756971  0.48223282    -0.80100
C667        C  0.25659711  0.34869679  0.48051394     0.79900
N668        N  0.28203578  0.36607545  0.47876690    -0.78400
C669        C  0.29620261  0.37615027  0.50407705     0.82300
N670        N  0.28430456  0.36913897  0.53146430    -0.78400
C671        C  0.25866227  0.35211204  0.53384176     0.82400
N672        N  0.24496112  0.34157124  0.50820169    -0.80100
O673        O  0.89600000  0.98389292  0.99851771    -0.86800
O674        O  0.06872839  0.99185822  0.00192011    -0.87000
O675        O  0.98429724  0.95554755  0.94739505    -0.88700
O676        O  0.98475826  0.94687012  0.04500249    -0.87400
O677        O  0.98080878  0.97929493  0.08490696    -0.87000
O678        O  0.98527736  0.99476667  0.91380415    -0.88400
O679        O  0.03376321  0.95376147  0.99753552    -0.86800
O680        O  0.93481035  0.94998814  0.99500137    -0.86400
Zr681      Zr  0.98320953  0.97585917  0.99854507     2.84300
O682        O  0.01212243  0.00456224  0.03211812    -1.08400
O683        O  0.95097489  0.00645494  0.97016428    -1.09100
C684        C  0.90641139  0.95714315  0.99568876     1.06300
C685        C  0.06115350  0.96416459  0.99944065     1.06200
C686        C  0.98543712  0.96674218  0.92040719     1.09200
C687        C  0.98324512  0.95280994  0.07347716     1.07000
H688        H  0.02647275  0.99854809  0.95782900     0.32600
O689        O  0.01303220  0.00932238  0.97105723    -1.29400
H690        H  0.93837856  0.98778645  0.04237540     0.32200
O691        O  0.95069133  0.00174445  0.03102240    -1.31000
O692        O  0.06544452  0.08716202  0.00966208    -0.86800
O693        O  0.89262147  0.08052554  0.00441736    -0.88300
O694        O  0.02974992  0.04363752  0.91874281    -0.86900
O695        O  0.02946202  0.02947317  0.08974063    -0.86900
O696        O  0.93029724  0.02717017  0.08864072    -0.86600
O697        O  0.93212154  0.03604544  0.91693136    -0.86500
O698        O  0.98010360  0.12432431  0.95818517    -0.86800
O699        O  0.97764378  0.11674931  0.05830964    -0.86300
O700        O  0.98107311  0.08921223  0.92053497    -0.87400
O701        O  0.97617232  0.07735699  0.09195325    -0.86500
O702        O  0.06639218  0.04422729  0.95595621    -0.86900
O703        O  0.89449687  0.03358254  0.95270513    -0.86600
O704        O  0.89397895  0.02892543  0.05134614    -0.86300
O705        O  0.06627072  0.03249765  0.05307532    -0.86700
O706        O  0.02824695  0.12299617  0.00846667    -0.87000
O707        O  0.92762383  0.11865918  0.00874005    -0.88300
Zr708      Zr  0.04136277  0.03862493  0.00451436     2.83100
Zr709      Zr  0.91929240  0.03324785  0.00236648     2.83500
Zr710      Zr  0.98077857  0.04010472  0.94296816     2.84100
Zr711      Zr  0.97987326  0.03063423  0.06428006     2.83400
Zr712      Zr  0.97863149  0.09676881  0.00697741     2.84200
O713        O  0.94912724  0.06232883  0.03490317    -1.08900
O714        O  0.01039030  0.06964519  0.97522366    -1.08400
C715        C  0.05641508  0.11449988  0.00982242     1.06300
C716        C  0.90012142  0.10830074  0.00682170     1.08900
C717        C  0.05751421  0.04479327  0.92809771     1.06400
C718        C  0.05741961  0.02974759  0.08069373     1.06800
C719        C  0.90234834  0.02702440  0.07937864     1.06400
C720        C  0.90403208  0.03391392  0.92506945     1.05900
C721        C  0.98159038  0.11631443  0.93002654     1.06400
C722        C  0.97619053  0.10547394  0.08527509     1.05900
H723        H  0.93563724  0.07991896  0.96200923     0.32500
O724        O  0.94864500  0.06739312  0.97429086    -1.30000
H725        H  0.02177454  0.07684696  0.05052727     0.32600
O726        O  0.00950185  0.06514935  0.03672335    -1.31400
O727        O  0.47783907  0.61263428  0.55685590    -0.86800
O728        O  0.47990342  0.44287987  0.55346613    -0.87000
O729        O  0.42909780  0.52919630  0.58818776    -0.88700
O730        O  0.52716859  0.53075945  0.59226806    -0.87400
O731        O  0.56535522  0.52969846  0.55699090    -0.87000
O732        O  0.39279926  0.52822579  0.55058593    -0.88400
O733        O  0.47713441  0.47917443  0.58989380    -0.86800
O734        O  0.47555733  0.57486795  0.59196373    -0.86400
Zr735      Zr  0.47890919  0.52763276  0.56540890     2.84300
O736        O  0.51086818  0.49803157  0.53589796    -1.08400
O737        O  0.44879681  0.55836316  0.53511857    -1.09100
C738        C  0.47597479  0.60269605  0.58429695     1.06300
C739        C  0.47782711  0.45173949  0.58129498     1.06200
C740        C  0.40142857  0.52916459  0.57850291     1.09200
C741        C  0.55541523  0.53103785  0.58441202     1.07000
H742        H  0.43579048  0.48523624  0.54559708     0.32600
O743        O  0.44899485  0.49781528  0.53359832    -1.29400
H744        H  0.52243800  0.57130800  0.55084534     0.32200
O745        O  0.51041462  0.55905918  0.53736917    -1.31000
O746        O  0.48164526  0.44595077  0.45316285    -0.86800
O747        O  0.48291071  0.61640097  0.45917257    -0.88300
O748        O  0.39411099  0.48088348  0.49930017    -0.86900
O749        O  0.56728960  0.48208495  0.50445009    -0.86900
O750        O  0.56672628  0.57848713  0.50993216    -0.86600
O751        O  0.39455203  0.57715605  0.50558365    -0.86500
O752        O  0.43351101  0.53215089  0.41701662    -0.86800
O753        O  0.53318527  0.53466126  0.42114803    -0.86300
O754        O  0.39589931  0.53222918  0.45282476    -0.87400
O755        O  0.56886816  0.53420556  0.45920934    -0.86500
O756        O  0.43021020  0.44399838  0.50230206    -0.86900
O757        O  0.43096645  0.61396544  0.50714673    -0.86600
O758        O  0.52953470  0.61419378  0.51109444    -0.86300
O759        O  0.53124444  0.44465260  0.50407982    -0.86700
O760        O  0.48473490  0.48378821  0.41788509    -0.87000
O761        O  0.48173672  0.58204436  0.42072642    -0.88300
Zr762      Zr  0.48077226  0.46834176  0.50368803     2.83100
Zr763      Zr  0.48033404  0.58969988  0.50692803     2.83500
Zr764      Zr  0.41960128  0.52896595  0.50254354     2.84100
Zr765      Zr  0.54174275  0.52998469  0.50694278     2.83400
Zr766      Zr  0.48244063  0.53186110  0.44371536     2.84200
O767        O  0.51215409  0.56118746  0.47619144    -1.08900
O768        O  0.45132943  0.49982583  0.47246091    -1.08400
C769        C  0.48375237  0.45590911  0.42567345     1.06300
C770        C  0.48248747  0.60908306  0.43099690     1.08900
C771        C  0.40233672  0.45329851  0.50033294     1.06400
C772        C  0.55906634  0.45442000  0.50379612     1.06800
C773        C  0.55757736  0.60576521  0.51159237     1.06400
C774        C  0.40308393  0.60471700  0.50706756     1.05900
C775        C  0.40528436  0.53287769  0.42518192     1.06400
C776        C  0.56095655  0.53518298  0.43104981     1.05900
H777        H  0.43820637  0.57369794  0.46158546     0.32500
O778        O  0.45063479  0.56079095  0.47402790    -1.30000
H779        H  0.52513776  0.48881457  0.46211207     0.32600
O780        O  0.51187288  0.50050157  0.47476463    -1.31400
C781        C  0.32430495  0.39470245  0.50192646    -0.05800
C782        C  0.34716476  0.39219638  0.52421637    -0.33200
C783        C  0.37373129  0.40974079  0.52283796     0.36000
C784        C  0.37725130  0.43110068  0.49963980    -0.06100
C785        C  0.35453910  0.43353633  0.47731199    -0.33100
C786        C  0.32852900  0.41528148  0.47802115     0.35900
H787        H  0.34449930  0.37646803  0.54272474     0.16300
O788        O  0.39528316  0.40702207  0.54521322    -0.60600
H789        H  0.35682601  0.44997730  0.45938453     0.16300
O790        O  0.30701286  0.41836799  0.45564738    -0.60700
H791        H  0.29341602  0.43450385  0.46262948     0.43300
H792        H  0.40981849  0.39197140  0.53763414     0.43300
C793        C  0.33286772  0.67096889  0.50908050    -0.05800
C794        C  0.32815996  0.64319730  0.52301094    -0.33200
C795        C  0.35080537  0.62140507  0.52252641     0.36000
C796        C  0.37898583  0.62750973  0.50852815    -0.06100
C797        C  0.38398149  0.65571588  0.49547175    -0.33100
C798        C  0.36097608  0.67718907  0.49516967     0.35900
H799        H  0.30654745  0.63809048  0.53361541     0.16300
O800        O  0.34503464  0.59417199  0.53564067    -0.60600
H801        H  0.40550710  0.66091772  0.48474137     0.16300
O802        O  0.36646748  0.70455384  0.48214848    -0.60700
H803        H  0.36903818  0.70064945  0.46024202     0.43300
H804        H  0.35209214  0.59609713  0.55686815     0.43300
C805        C  0.63745757  0.39743666  0.50215970    -0.05800
C806        C  0.61789868  0.39735309  0.52735606    -0.33200
C807        C  0.59148232  0.41483461  0.52762444     0.36000
C808        C  0.58404512  0.43262697  0.50243086    -0.06100
C809        C  0.60319523  0.43257374  0.47713977    -0.33100
C810        C  0.62956684  0.41508492  0.47672783     0.35900
H811        H  0.62334611  0.38409683  0.54719828     0.16300
O812        O  0.57378327  0.41537122  0.55310114    -0.60600
H813        H  0.59808517  0.44681594  0.45789626     0.16300
O814        O  0.64845020  0.41707821  0.45216641    -0.60700
H815        H  0.64000870  0.40277367  0.43724388     0.43300
H816        H  0.58185985  0.43217470  0.56531095     0.43300
C817        C  0.62201400  0.67774369  0.51567373    -0.05800
C818        C  0.62977871  0.65102014  0.50124976    -0.33200
C819        C  0.60965763  0.62680698  0.50095333     0.36000
C820        C  0.58078924  0.62948960  0.51437535    -0.06100
C821        C  0.57347632  0.65593160  0.52964744    -0.33100
C822        C  0.59393226  0.67987481  0.53057054     0.35900
H823        H  0.65141106  0.64905238  0.48975646     0.16300
O824        O  0.61774590  0.60138490  0.48590131    -0.60600
H825        H  0.55157433  0.65827063  0.54048392     0.16300
O826        O  0.58568751  0.70564558  0.54492187    -0.60700
H827        H  0.57516765  0.71777468  0.52926332     0.43300
H828        H  0.62938254  0.58939342  0.50087098     0.43300
C829        C  0.33424320  0.53772483  0.35786041    -0.05800
C830        C  0.36190483  0.52384628  0.35100199    -0.33200
C831        C  0.38567103  0.52290682  0.37224421     0.36000
C832        C  0.38154896  0.53508391  0.40130550    -0.06100
C833        C  0.35381975  0.54915867  0.40795780    -0.33100
C834        C  0.33039148  0.55069267  0.38646772     0.35900
H835        H  0.36500411  0.51349758  0.32913231     0.16300
O836        O  0.41215094  0.50864621  0.36488033    -0.60600
H837        H  0.35016098  0.55890216  0.43002367     0.16300
O838        O  0.30341262  0.56394021  0.39404925    -0.60700
H839        H  0.29102224  0.54787007  0.40347586     0.43300
H840        H  0.42433925  0.52368462  0.35362924     0.43300
C841        C  0.48322098  0.68456967  0.37051540    -0.05800
C842        C  0.46050711  0.66251744  0.36771615    -0.33200
C843        C  0.46049534  0.63725348  0.38666594     0.36000
C844        C  0.48304142  0.63410090  0.40916483    -0.06100
C845        C  0.50520527  0.65648709  0.41249000    -0.33100
C846        C  0.50553919  0.68143837  0.39335749     0.35900
H847        H  0.44291962  0.66471013  0.35059645     0.16300
O848        O  0.43747270  0.61662383  0.38413857    -0.60600
H849        H  0.52233735  0.65463084  0.43012048     0.16300
O850        O  0.52746001  0.70292890  0.39765067    -0.60700
H851        H  0.51750355  0.71861435  0.40981679     0.43300
H852        H  0.44400533  0.60290017  0.36791399     0.43300
C853        C  0.63492864  0.53571658  0.36722607    -0.05800
C854        C  0.60741101  0.52121706  0.36031465    -0.33200
C855        C  0.58288745  0.52181813  0.38038134     0.36000
C856        C  0.58580762  0.53639973  0.40843317    -0.06100
C857        C  0.61336599  0.55107888  0.41532198    -0.33100
C858        C  0.63769750  0.55106243  0.39485040     0.35900
H859        H  0.60490932  0.50924761  0.33920007     0.16300
O860        O  0.55677559  0.50657177  0.37304576    -0.60600
H861        H  0.61611988  0.56246571  0.43672049     0.16300
O862        O  0.66432988  0.56530732  0.40248781    -0.60700
H863        H  0.67739689  0.54962413  0.41157036     0.43300
H864        H  0.54465783  0.52066556  0.36056909     0.43300
C865        C  0.48563951  0.43377021  0.40089756    -0.05800
C866        C  0.50487901  0.43949284  0.37620073    -0.33200
C867        C  0.50645617  0.41966509  0.35183407     0.36000
C868        C  0.48800235  0.39391513  0.35142988    -0.06100
C869        C  0.46893049  0.38798449  0.37621800    -0.33100
C870        C  0.46795133  0.40744110  0.40099760     0.35900
H871        H  0.51866802  0.45956525  0.37568846     0.16300
O872        O  0.52453308  0.42671985  0.32759165    -0.60600
H873        H  0.45445089  0.36834082  0.37621230     0.16300
O874        O  0.44813391  0.40155382  0.42419410    -0.60700
H875        H  0.45824725  0.38608249  0.43676114     0.43300
H876        H  0.54552777  0.42174903  0.33414490     0.43300
C877        C  0.61946729  0.53767095  0.65753461    -0.05800
C878        C  0.62394899  0.51691914  0.63425671    -0.33200
C879        C  0.60373357  0.51516601  0.60981800     0.36000
C880        C  0.57803200  0.53365924  0.60886437    -0.06100
C881        C  0.57354825  0.55456741  0.63192299    -0.33100
C882        C  0.59424797  0.55696171  0.65595134     0.35900
H883        H  0.64316840  0.50187271  0.63504059     0.16300
O884        O  0.60833406  0.49415717  0.58787400    -0.60600
H885        H  0.55387982  0.56907605  0.63131970     0.16300
O886        O  0.58859154  0.57696318  0.67858671    -0.60700
H887        H  0.59516105  0.59660157  0.67040881     0.43300
H888        H  0.62279350  0.50353886  0.57347966     0.43300
C889        C  0.47729102  0.39275169  0.65847722    -0.05800
C890        C  0.45395569  0.41370054  0.65412919    -0.33200
C891        C  0.45323711  0.43196815  0.62833329     0.36000
C892        C  0.47577965  0.42927683  0.60590644    -0.06100
C893        C  0.49818215  0.40731011  0.60930572    -0.33100
C894        C  0.49918167  0.38925908  0.63541341     0.35900
H895        H  0.43678807  0.41677752  0.67133690     0.16300
O896        O  0.43090075  0.45314472  0.62571307    -0.60600
H897        H  0.51574908  0.40505617  0.59235634     0.16300
O898        O  0.52199194  0.36866230  0.63833264    -0.60700
H899        H  0.51303710  0.34965559  0.63101478     0.43300
H900        H  0.41506618  0.44404713  0.61257150     0.43300
C901        C  0.33782808  0.53029296  0.65064862    -0.05800
C902        C  0.35624225  0.55533734  0.64485388    -0.33200
C903        C  0.37633307  0.55549639  0.62056387     0.36000
C904        C  0.37806296  0.53050223  0.60166801    -0.06100
C905        C  0.35930340  0.50573667  0.60681925    -0.33100
C906        C  0.33939197  0.50535218  0.63137446     0.35900
H907        H  0.35531464  0.57471776  0.65937911     0.16300
O908        O  0.39454263  0.57997087  0.61565847    -0.60600
H909        H  0.36070431  0.48639281  0.59228246     0.16300
O910        O  0.32086071  0.48099431  0.63568097    -0.60700
H911        H  0.33372781  0.46605185  0.64623894     0.43300
H912        H  0.38258552  0.59325628  0.60217807     0.43300
C913        C  0.47318923  0.66446654  0.65847328    -0.05800
C914        C  0.48921416  0.67181836  0.63202142    -0.33200
C915        C  0.48953100  0.65241381  0.60731523     0.36000
C916        C  0.47438256  0.62467245  0.60913451    -0.06100
C917        C  0.45851211  0.61730368  0.63572876    -0.33100
C918        C  0.45756275  0.63704160  0.66011427     0.35900
H919        H  0.50150632  0.69278527  0.63042161     0.16300
O920        O  0.50617010  0.66004528  0.58223416    -0.60600
H921        H  0.44702764  0.59598064  0.63779691     0.16300
O922        O  0.44209653  0.62885380  0.68575509    -0.60700
H923        H  0.45767326  0.62005747  0.69939658     0.43300
H924        H  0.49379546  0.67515073  0.57133684     0.43300
C925        C  0.68623770  0.78643630  0.61840207    -0.05800
C926        C  0.70907471  0.78566599  0.59624871    -0.33200
C927        C  0.70276246  0.77468693  0.56703881     0.36000
C928        C  0.67310935  0.76489457  0.55953627    -0.06100
C929        C  0.64985733  0.76835889  0.58099774    -0.33100
C930        C  0.65627070  0.77863410  0.61020953     0.35900
H931        H  0.73235208  0.79112960  0.60233249     0.16300
O932        O  0.72622184  0.77123340  0.54703130    -0.60600
H933        H  0.62681911  0.76128220  0.57572463     0.16300
O934        O  0.63328639  0.77983086  0.63109509    -0.60700
H935        H  0.63013726  0.75892586  0.63790560     0.43300
H936        H  0.73473761  0.75123366  0.55155293     0.43300
C937        C  0.68807060  0.65001519  0.75597724    -0.05800
C938        C  0.65871176  0.64369754  0.74529369    -0.33200
C939        C  0.65018971  0.61473057  0.73758481     0.36000
C940        C  0.67148530  0.59123695  0.73950474    -0.06100
C941        C  0.70000764  0.59696277  0.75290522    -0.33100
C942        C  0.70836182  0.62618442  0.76122200     0.35900
H943        H  0.64251253  0.66158648  0.74187609     0.16300
O944        O  0.62124281  0.61000516  0.72684919    -0.60600
H945        H  0.71654818  0.57923173  0.75511549     0.16300
O946        O  0.73699255  0.63140539  0.77256447    -0.60700
H947        H  0.74971893  0.63620103  0.75469862     0.43300
H948        H  0.61002626  0.60069756  0.74390541     0.43300
C949        C  0.58940318  0.75783705  0.73241914    -0.05800
C950        C  0.58135460  0.74983189  0.70285030    -0.33200
C951        C  0.55226483  0.73921629  0.69606032     0.36000
C952        C  0.53016028  0.73653250  0.71907460    -0.06100
C953        C  0.53746913  0.74662608  0.74830103    -0.33100
C954        C  0.56683646  0.75731833  0.75506150     0.35900
H955        H  0.59800475  0.75101764  0.68487641     0.16300
O956        O  0.54577823  0.73146759  0.66671372    -0.60600
H957        H  0.52090397  0.74488035  0.76630854     0.16300
O958        O  0.57375285  0.76507129  0.78427580    -0.60700
H959        H  0.56821581  0.78643129  0.78584451     0.43300
H960        H  0.55594281  0.71200679  0.66359628     0.43300
C961        C  0.73556521  0.33508587  0.62216860    -0.05800
C962        C  0.74390987  0.31661213  0.59798654    -0.33200
C963        C  0.73564054  0.32391074  0.56803555     0.36000
C964        C  0.71866853  0.34996629  0.56199704    -0.06100
C965        C  0.71241901  0.36937727  0.58600799    -0.33100
C966        C  0.72082693  0.36229304  0.61566979     0.35900
H967        H  0.75514620  0.29557333  0.60246339     0.16300
O968        O  0.74206517  0.30421151  0.54535038    -0.60600
H969        H  0.70015794  0.38994245  0.58192787     0.16300
O970        O  0.71327546  0.38163773  0.63837197    -0.60700
H971        H  0.73190325  0.39369347  0.64203552     0.43300
H972        H  0.76251761  0.31013215  0.53798609     0.43300
C973        C  0.53788466  0.34470107  0.73905146    -0.05800
C974        C  0.54326311  0.31724921  0.75370147    -0.33200
C975        C  0.57288694  0.30924133  0.76295578     0.36000
C976        C  0.59751759  0.32889540  0.75766141    -0.06100
C977        C  0.59159807  0.35698663  0.74480870    -0.33100
C978        C  0.56229294  0.36494534  0.73563324     0.35900
H979        H  0.52479466  0.30140320  0.75661156     0.16300
O980        O  0.57782912  0.28128472  0.77467081    -0.60600
H981        H  0.61010174  0.37257607  0.74078758     0.16300
O982        O  0.55793304  0.39243788  0.72257738    -0.60700
H983        H  0.55476159  0.40623948  0.73972939     0.43300
H984        H  0.57580632  0.28354343  0.79687538     0.43300
C985        C  0.70401597  0.42226217  0.73849777    -0.05800
C986        C  0.67387060  0.42724632  0.72937393    -0.33200
C987        C  0.66318034  0.45590176  0.72376808     0.36000
C988        C  0.68257912  0.48082291  0.72739223    -0.06100
C989        C  0.71253587  0.47624813  0.73769603    -0.33100
C990        C  0.72335788  0.44712395  0.74324522     0.35900
H991        H  0.65824390  0.40869968  0.72634724     0.16300
O992        O  0.63331367  0.45932795  0.71518963    -0.60600
H993        H  0.72786401  0.49507964  0.74027022     0.16300
O994        O  0.75319424  0.44318415  0.75150994    -0.60700
H995        H  0.75363155  0.44583537  0.77376644     0.43300
H996        H  0.63234278  0.45291682  0.69374776     0.43300
C997        C  0.22956146  0.73911071  0.61835867    -0.05800
C998        C  0.23998176  0.71025658  0.61244523    -0.33200
C999        C  0.25012928  0.70241126  0.58370120     0.36000
C1000       C  0.25048629  0.72379393  0.56008884    -0.06100
C1001       C  0.23746440  0.75193249  0.56529399    -0.33100
C1002       C  0.22677545  0.75956429  0.59419273     0.35900
H1003       H  0.24142677  0.69397024  0.63058461     0.16300
O1004       O  0.25996864  0.67377285  0.57903671    -0.60600
H1005       H  0.23717618  0.76863246  0.54749188     0.16300
O1006       O  0.21623136  0.78785328  0.59912804    -0.60700
H1007       H  0.19397123  0.78660831  0.59549057     0.43300
H1008       H  0.27993781  0.67238302  0.58951537     0.43300
C1009       C  0.42074022  0.71628346  0.74078692    -0.05800
C1010       C  0.41524317  0.74519446  0.75167247    -0.33200
C1011       C  0.38597112  0.75363583  0.76092375     0.36000
C1012       C  0.36172810  0.73300203  0.75959950    -0.06100
C1013       C  0.36776484  0.70350199  0.75115153    -0.33100
C1014       C  0.39690233  0.69502879  0.74189593     0.35900
H1015       H  0.43306340  0.76196715  0.75090526     0.16300
O1016       O  0.38060417  0.78292365  0.76782862    -0.60600
H1017       H  0.34939642  0.68729316  0.75018511     0.16300
O1018       O  0.40164294  0.66604024  0.73329648    -0.60700
H1019       H  0.39220539  0.66426187  0.71294318     0.43300
H1020       H  0.38505482  0.78459808  0.78976608     0.43300
C1021       C  0.24987646  0.64589818  0.72658309    -0.05800
C1022       C  0.24482829  0.62261361  0.74743936    -0.33200
C1023       C  0.25426360  0.59350741  0.74098397     0.36000
C1024       C  0.26882310  0.58756548  0.71329141    -0.06100
C1025       C  0.27181091  0.61052586  0.69183467    -0.33100
C1026       C  0.26274300  0.63935964  0.69826394     0.35900
H1027       H  0.23478541  0.62718042  0.76926381     0.16300
O1028       O  0.25080712  0.57167057  0.76256306    -0.60600
H1029       H  0.28194457  0.60642844  0.66995044     0.16300
O1030       O  0.26647074  0.66098588  0.67647371    -0.60700
H1031       H  0.28828747  0.66673811  0.67750099     0.43300
H1032       H  0.23043246  0.56284609  0.75863366     0.43300
C1033       C  0.23064568  0.33225937  0.62520694    -0.05800
C1034       C  0.22228270  0.31286236  0.60165385    -0.33200
C1035       C  0.23021524  0.31929657  0.57151520     0.36000
C1036       C  0.24623777  0.34579465  0.56448999    -0.06100
C1037       C  0.25256286  0.36607265  0.58787977    -0.33100
C1038       C  0.24522996  0.35942813  0.61791065     0.35900
H1039       H  0.21130804  0.29174789  0.60679901     0.16300
O1040       O  0.22365929  0.29878298  0.54949054    -0.60600
H1041       H  0.26417692  0.38693366  0.58305691     0.16300
O1042       O  0.25266326  0.37960499  0.64005313    -0.60700
H1043       H  0.27483949  0.37717430  0.64354740     0.43300
H1044       H  0.24047709  0.28411972  0.55048779     0.43300
C1045       C  0.25854711  0.42106866  0.74228254    -0.05800
C1046       C  0.28960975  0.42713115  0.73843873    -0.33200
C1047       C  0.29954580  0.45574284  0.73146846     0.36000
C1048       C  0.27823332  0.47879773  0.72782869    -0.06100
C1049       C  0.24740553  0.47341533  0.73417977    -0.33100
C1050       C  0.23741669  0.44455363  0.74132807     0.35900
H1051       H  0.30623745  0.40939317  0.74002431     0.16300
O1052       O  0.33004328  0.46066385  0.72695119    -0.60600
H1053       H  0.23082083  0.49107212  0.73160364     0.16300
O1054       O  0.20693891  0.43926703  0.74548641    -0.60700
H1055       H  0.19883257  0.43429981  0.72513618     0.43300
H1056       H  0.33789362  0.46812266  0.74659241     0.43300
C1057       C  0.36587954  0.33168112  0.76499858    -0.05800
C1058       C  0.37223770  0.36081589  0.75504248    -0.33200
C1059       C  0.40144050  0.36892023  0.74549288     0.36000
C1060       C  0.42506174  0.34774672  0.74573452    -0.06100
C1061       C  0.41940687  0.31930671  0.75814761    -0.33100
C1062       C  0.38997296  0.31116760  0.76769021     0.35900
H1063       H  0.35406542  0.37699960  0.75317866     0.16300
O1064       O  0.40662401  0.39755818  0.73554471    -0.60600
H1065       H  0.43726127  0.30271984  0.75847661     0.16300
O1066       O  0.38439161  0.28228356  0.77649138    -0.60700
H1067       H  0.38784763  0.28202440  0.79867452     0.43300
H1068       H  0.39694946  0.39877547  0.71525515     0.43300
C1069       C  0.13349432  0.17446117  0.01157820    -0.05800
C1070       C  0.10992651  0.17873606  0.99025923    -0.33200
C1071       C  0.08376915  0.16044843  0.99037048     0.36000
C1072       C  0.08093528  0.13726193  0.01181009    -0.06100
C1073       C  0.10409602  0.13336750  0.03340220    -0.33100
C1074       C  0.12999395  0.15168518  0.03357313     0.35900
H1075       H  0.11187832  0.19611743  0.97324599     0.16300
O1076       O  0.06171366  0.16467477  0.96872691    -0.60600
H1077       H  0.10239923  0.11548468  0.04992892     0.16300
O1078       O  0.15213305  0.14638601  0.05489304    -0.60700
H1079       H  0.16611718  0.13189349  0.04542698     0.43300
H1080       H  0.06809224  0.15238030  0.95129373     0.43300
C1081       C  0.20627475  0.23718234  0.95447611    -0.05800
C1082       C  0.18365582  0.24841178  0.93522221    -0.33200
C1083       C  0.19074225  0.25871603  0.90619359     0.36000
C1084       C  0.22105177  0.25764461  0.89565032    -0.06100
C1085       C  0.24411286  0.24847889  0.91573302    -0.33100
C1086       C  0.23691471  0.23833990  0.94502360     0.35900
H1087       H  0.16012233  0.24864529  0.94247098     0.16300
O1088       O  0.16784688  0.26992731  0.88823781    -0.60600
H1089       H  0.26749941  0.24746824  0.90815593     0.16300
O1090       O  0.25965909  0.22730110  0.96316570    -0.60700
H1091       H  0.26752878  0.24477418  0.97449344     0.43300
H1092       H  0.15331941  0.25319485  0.88513025     0.43300
C1093       C  0.70635474  0.74862168  0.38975505    -0.05800
C1094       C  0.69202328  0.72168853  0.39746464    -0.33200
C1095       C  0.68284305  0.71575194  0.42709093     0.36000
C1096       C  0.68726398  0.73728815  0.45022881    -0.06100
C1097       C  0.70217964  0.76407739  0.44265897    -0.33100
C1098       C  0.71161484  0.76986950  0.41282261     0.35900
H1099       H  0.68788793  0.70484830  0.38040570     0.16300
O1100       O  0.66905497  0.68877928  0.43277816    -0.60600
H1101       H  0.70591458  0.78098631  0.45971251     0.16300
O1102       O  0.72537781  0.79668866  0.40646154    -0.60700
H1103       H  0.70846668  0.81056387  0.40175820     0.43300
H1104       H  0.68591153  0.67490030  0.43765900     0.43300
C1105       C  0.60222532  0.77215361  0.29526892    -0.05800
C1106       C  0.57792462  0.77703059  0.27507515    -0.33200
C1107       C  0.54786961  0.76985659  0.28344125     0.36000
C1108       C  0.54191429  0.75795729  0.31244937    -0.06100
C1109       C  0.56616778  0.75486374  0.33305180    -0.33100
C1110       C  0.59601061  0.76157271  0.32463167     0.35900
H1111       H  0.58243444  0.78471784  0.25224282     0.16300
O1112       O  0.52504428  0.77213758  0.26231455    -0.60600
H1113       H  0.56214184  0.74629413  0.35566283     0.16300
O1114       O  0.61911388  0.75756916  0.34526944    -0.60700
H1115       H  0.62316127  0.73581097  0.34545902     0.43300
H1116       H  0.51788643  0.79303066  0.26364456     0.43300
C1117       C  0.74232803  0.63959940  0.29533471    -0.05800
C1118       C  0.73934681  0.61741016  0.27314695    -0.33200
C1119       C  0.72744693  0.58905448  0.28051238     0.36000
C1120       C  0.71889081  0.58241566  0.31058573    -0.06100
C1121       C  0.72409505  0.60398832  0.33300144    -0.33100
C1122       C  0.73542994  0.63234453  0.32556822     0.35900
H1123       H  0.74374172  0.62286495  0.24965065     0.16300
O1124       O  0.72197835  0.56901448  0.25775783    -0.60600
H1125       H  0.71796942  0.59934877  0.35628498     0.16300
O1126       O  0.73859390  0.65335282  0.34786326    -0.60700
H1127       H  0.71770054  0.66060013  0.35184907     0.43300
H1128       H  0.70064775  0.57264484  0.25131351     0.43300
C1129       C  0.73753562  0.32797179  0.39056671    -0.05800
C1130       C  0.74417991  0.31019991  0.41603810    -0.33200
C1131       C  0.73612421  0.31963813  0.44528656     0.36000
C1132       C  0.72107196  0.34711427  0.44921669    -0.06100
C1133       C  0.71692500  0.36579195  0.42394078    -0.33100
C1134       C  0.72512686  0.35656219  0.39498554     0.35900
H1135       H  0.75365863  0.28813794  0.41311169     0.16300
O1136       O  0.74048710  0.30066352  0.46932758    -0.60600
H1137       H  0.70616155  0.38733978  0.42643417     0.16300
O1138       O  0.71933156  0.37508538  0.37083525    -0.60700
H1139       H  0.73762933  0.38800838  0.36907580     0.43300
H1140       H  0.76195593  0.30379499  0.47560920     0.43300
C1141       C  0.70687917  0.41350517  0.28231354    -0.05800
C1142       C  0.72977122  0.43549783  0.27979215    -0.33200
C1143       C  0.72451773  0.46514620  0.28873352     0.36000
C1144       C  0.69577474  0.47350571  0.29998341    -0.06100
C1145       C  0.67263747  0.45170648  0.30122999    -0.33100
C1146       C  0.67788331  0.42218318  0.29250428     0.35900
H1147       H  0.75224924  0.42946310  0.27200628     0.16300
O1148       O  0.74801635  0.48534926  0.28742474    -0.60600
H1149       H  0.65020006  0.45738897  0.30940402     0.16300
O1150       O  0.65450288  0.40185480  0.29448177    -0.60700
H1151       H  0.63994937  0.40752022  0.27824642     0.43300
H1152       H  0.75826807  0.48396679  0.30742372     0.43300
C1153       C  0.59774934  0.31892915  0.25364426    -0.05800
C1154       C  0.59248080  0.34931285  0.25860530    -0.33200
C1155       C  0.56371698  0.35948514  0.26700542     0.36000
C1156       C  0.53935469  0.33918513  0.27020051    -0.06100
C1157       C  0.54398695  0.30901563  0.26297136    -0.33100
C1158       C  0.57308393  0.29876576  0.25494739     0.35900
H1159       H  0.61120726  0.36507310  0.25743009     0.16300
O1160       O  0.55968729  0.38931806  0.27248995    -0.60600
H1161       H  0.52558214  0.29304942  0.26561508     0.16300
O1162       O  0.57775670  0.26875603  0.25147667    -0.60700
H1163       H  0.57396247  0.26486148  0.22972108     0.43300
H1164       H  0.57087129  0.39336434  0.29159071     0.43300
C1165       C  0.25679369  0.75864016  0.39076367    -0.05800
C1166       C  0.28589739  0.74797326  0.39752683    -0.33200
C1167       C  0.29388001  0.73968312  0.42682476     0.36000
C1168       C  0.27243046  0.74161317  0.45052841    -0.06100
C1169       C  0.24387299  0.75434054  0.44426655    -0.33100
C1170       C  0.23597810  0.76291095  0.41462328     0.35900
H1171       H  0.30268251  0.74551000  0.37984844     0.16300
O1172       O  0.32293335  0.72968452  0.43185812    -0.60600
H1173       H  0.22714438  0.75647801  0.46203868     0.16300
O1174       O  0.20761048  0.77446461  0.40918978    -0.60700
H1175       H  0.19449794  0.75700398  0.40450058     0.43300
H1176       H  0.32330071  0.70909977  0.42370295     0.43300
C1177       C  0.23156609  0.64537862  0.29012133    -0.05800
C1178       C  0.22786858  0.62238136  0.26879639    -0.33200
C1179       C  0.23703987  0.59291137  0.27566388     0.36000
C1180       C  0.25011935  0.58627475  0.30415998    -0.06100
C1181       C  0.25091694  0.60884004  0.32615261    -0.33100
C1182       C  0.24213034  0.63801836  0.31931246     0.35900
H1183       H  0.21983898  0.62762898  0.24618594     0.16300
O1184       O  0.23560102  0.57161976  0.25355290    -0.60600
H1185       H  0.25998381  0.60425625  0.34853664     0.16300
O1186       O  0.24466694  0.65951465  0.34122021    -0.60700
H1187       H  0.26663386  0.66468607  0.34215675     0.43300
H1188       H  0.21559027  0.56167857  0.25635122     0.43300
C1189       C  0.36905086  0.78127852  0.29770591    -0.05800
C1190       C  0.39323973  0.78524658  0.27731703    -0.33200
C1191       C  0.42287421  0.77571753  0.28494576     0.36000
C1192       C  0.42842922  0.76196403  0.31326127    -0.06100
C1193       C  0.40452839  0.76007617  0.33419153    -0.33100
C1194       C  0.37525241  0.76955537  0.32668342     0.35900
H1195       H  0.38879628  0.79387947  0.25479186     0.16300
O1196       O  0.44543442  0.77756640  0.26367488    -0.60600
H1197       H  0.40829616  0.75027536  0.35635195     0.16300
O1198       O  0.35238262  0.76569689  0.34739098    -0.60700
H1199       H  0.34854134  0.78584376  0.35567722     0.43300
H1200       H  0.45307202  0.79838972  0.26477546     0.43300
C1201       C  0.08162170  0.02666731  0.10346936    -0.05800
C1202       C  0.10385731  0.00462109  0.09981318    -0.33200
C1203       C  0.12869714  0.00271713  0.11968443     0.36000
C1204       C  0.13167236  0.02333973  0.14350928    -0.06100
C1205       C  0.10908644  0.04524526  0.14711933    -0.33100
C1206       C  0.08413886  0.04686207  0.12746641     0.35900
H1207       H  0.10214517  0.98906393  0.08120137     0.16300
O1208       O  0.15017625  0.98110840  0.11513382    -0.60600
H1209       H  0.11073460  0.06138616  0.16518520     0.16300
O1210       O  0.06340842  0.06941642  0.13068123    -0.60700
H1211       H  0.05026664  0.06317868  0.14778449     0.43300
H1212       H  0.16344285  0.98902480  0.09883583     0.43300
C1213       C  0.23828387  0.91268134  0.20549110    -0.05800
C1214       C  0.24219778  0.93534053  0.22705818    -0.33200
C1215       C  0.23163036  0.96445532  0.22131546     0.36000
C1216       C  0.21670486  0.97110828  0.19371515    -0.06100
C1217       C  0.21549328  0.94900592  0.17127732    -0.33100
C1218       C  0.22598387  0.92012373  0.17697018     0.35900
H1219       H  0.25136016  0.92997506  0.24921765     0.16300
O1220       O  0.23366424  0.98531518  0.24381395    -0.60600
H1221       H  0.20508710  0.95368454  0.14949990     0.16300
O1222       O  0.22336087  0.89896049  0.15473381    -0.60700
H1223       H  0.20142133  0.89367226  0.15386231     0.43300
H1224       H  0.25321016  0.99587076  0.24019103     0.43300
C1225       C  0.22537009  0.31938133  0.39310578    -0.05800
C1226       C  0.22284047  0.29984202  0.41800623    -0.33200
C1227       C  0.23108426  0.30937677  0.44735216     0.36000
C1228       C  0.24193664  0.33876205  0.45188476    -0.06100
C1229       C  0.24190500  0.35867899  0.42733230    -0.33100
C1230       C  0.23374302  0.34928213  0.39833362     0.35900
H1231       H  0.21649737  0.27673419  0.41443885     0.16300
O1232       O  0.23024186  0.28935601  0.47090592    -0.60600
H1233       H  0.24945425  0.38153279  0.43037940     0.16300
O1234       O  0.23490894  0.36938342  0.37485996    -0.60700
H1235       H  0.25685064  0.37170154  0.37028878     0.43300
H1236       H  0.25062973  0.27995741  0.47125623     0.43300
C1237       C  0.36529536  0.32674041  0.25919949    -0.05800
C1238       C  0.38999345  0.31195783  0.24587684    -0.33200
C1239       C  0.42022910  0.31918072  0.25408478     0.36000
C1240       C  0.42602299  0.34123775  0.27620186    -0.06100
C1241       C  0.40120549  0.35704667  0.28785578    -0.33100
C1242       C  0.37138738  0.35014889  0.27957651     0.35900
H1243       H  0.38587461  0.29391765  0.23013773     0.16300
O1244       O  0.44365741  0.30354765  0.24145192    -0.60600
H1245       H  0.40466330  0.37487877  0.30397812     0.16300
O1246       O  0.34817978  0.36667229  0.29156094    -0.60700
H1247       H  0.34722039  0.36085573  0.31322252     0.43300
H1248       H  0.44760100  0.31354773  0.22177653     0.43300
C1249       C  0.25372648  0.41409651  0.28502788    -0.05800
C1250       C  0.24152377  0.43740771  0.26711376    -0.33200
C1251       C  0.24779216  0.46764221  0.27369641     0.36000
C1252       C  0.26677240  0.47503359  0.29837768    -0.06100
C1253       C  0.27850724  0.45163450  0.31625044    -0.33100
C1254       C  0.27242019  0.42180940  0.30981818     0.35900
H1255       H  0.22723351  0.43225110  0.24778337     0.16300
O1256       O  0.23613753  0.48953458  0.25529549    -0.60600
H1257       H  0.29266325  0.45627041  0.33581632     0.16300
O1258       O  0.28437342  0.40045269  0.32868732    -0.60700
H1259       H  0.30601130  0.39867093  0.32276282     0.43300
H1260       H  0.21474709  0.49200105  0.26186153     0.43300
C1261       C  0.24021962  0.23080938  0.12405053    -0.05800
C1262       C  0.24656905  0.25104509  0.10047963    -0.33200
C1263       C  0.23762480  0.24473952  0.07056545     0.36000
C1264       C  0.22189725  0.21794153  0.06406608    -0.06100
C1265       C  0.21879966  0.19647082  0.08709062    -0.33100
C1266       C  0.22766885  0.20270754  0.11679335     0.35900
H1267       H  0.25627700  0.27272285  0.10556596     0.16300
O1268       O  0.24177773  0.26610039  0.04863381    -0.60600
H1269       H  0.20787076  0.17524381  0.08244140     0.16300
O1270       O  0.22307509  0.18149488  0.13885530    -0.60700
H1271       H  0.20083097  0.18134159  0.14262850     0.43300
H1272       H  0.26216776  0.26202938  0.04010099     0.43300
C1273       C  0.21179276  0.13820550  0.22955056    -0.05800
C1274       C  0.18192669  0.13091065  0.22121345    -0.33200
C1275       C  0.17397160  0.10190088  0.21325847     0.36000
C1276       C  0.19626706  0.07921272  0.21283572    -0.06100
C1277       C  0.22583731  0.08600875  0.22302422    -0.33100
C1278       C  0.23362559  0.11524292  0.23162495     0.35900
H1279       H  0.16441013  0.14786576  0.22074572     0.16300
O1280       O  0.14408161  0.09598885  0.20622833    -0.60600
H1281       H  0.24326422  0.06899561  0.22317121     0.16300
O1282       O  0.26298406  0.12138300  0.24031542    -0.60700
H1283       H  0.26391789  0.11614785  0.26213102     0.43300
H1284       H  0.14053145  0.10550049  0.18620289     0.43300
C1285       C  0.97673889  0.16393599  0.16177500    -0.05800
C1286       C  0.95483934  0.14111534  0.15957999    -0.33200
C1287       C  0.95416991  0.12215593  0.13452505     0.36000
C1288       C  0.97505676  0.12639478  0.11081455    -0.06100
C1289       C  0.99598516  0.15007765  0.11228699    -0.33100
C1290       C  0.99709246  0.16865070  0.13763715     0.35900
H1291       H  0.93880578  0.13733825  0.17777519     0.16300
O1292       O  0.93262525  0.09993687  0.13307355    -0.60600
H1293       H  0.01212735  0.15362231  0.09413654     0.16300
O1294       O  0.01822229  0.19125467  0.13862509    -0.60700
H1295       H  0.00738629  0.20917798  0.13104651     0.43300
H1296       H  0.94080202  0.08346282  0.14572486     0.43300
C1297       C  0.92548635  0.21194847  0.24650490    -0.05800
C1298       C  0.92149110  0.23934266  0.26138546    -0.33200
C1299       C  0.89235662  0.24824210  0.27090694     0.36000
C1300       C  0.86707312  0.22938493  0.26597354    -0.06100
C1301       C  0.87174148  0.20108831  0.25354758    -0.33100
C1302       C  0.90042465  0.19231069  0.24387997     0.35900
H1303       H  0.94046800  0.25468808  0.26375321     0.16300
O1304       O  0.88853179  0.27614200  0.28285981    -0.60600
H1305       H  0.85260325  0.18623110  0.24978562     0.16300
O1306       O  0.90329703  0.16495560  0.23041277    -0.60700
H1307       H  0.91031433  0.15134774  0.24673979     0.43300
H1308       H  0.88361905  0.28921468  0.26534912     0.43300
C1309       C  0.03855509  0.21223826  0.24003614    -0.05800
C1310       C  0.04446046  0.23978438  0.25398932    -0.33200
C1311       C  0.07431568  0.24795017  0.26216061     0.36000
C1312       C  0.09863734  0.22843691  0.25630141    -0.06100
C1313       C  0.09238825  0.20031564  0.24394242    -0.33100
C1314       C  0.06276670  0.19210858  0.23593475     0.35900
H1315       H  0.02617032  0.25555383  0.25724325     0.16300
O1316       O  0.07972267  0.27587385  0.27357439    -0.60600
H1317       H  0.11074698  0.18481504  0.23975408     0.16300
O1318       O  0.05766192  0.16413995  0.22439014    -0.60700
H1319       H  0.06463432  0.16514497  0.20309161     0.43300
H1320       H  0.07789167  0.27358050  0.29581883     0.43300
C1321       C  0.75204337  0.96701220  0.19941651    -0.05800
C1322       C  0.75661361  0.94473121  0.17759580    -0.33200
C1323       C  0.74816192  0.91516729  0.18286651     0.36000
C1324       C  0.73384651  0.90700899  0.21011729    -0.06100
C1325       C  0.72623651  0.92957969  0.23077581    -0.33100
C1326       C  0.73542954  0.95944402  0.22570262     0.35900
H1327       H  0.76828071  0.94981034  0.15663694     0.16300
O1328       O  0.75467007  0.89414820  0.16136137    -0.60600
H1329       H  0.71508214  0.92376707  0.25182028     0.16300
O1330       O  0.72935140  0.98050950  0.24719490    -0.60700
H1331       H  0.74657768  0.97938779  0.26172836     0.43300
H1332       H  0.77686066  0.89049387  0.16321586     0.43300
C1333       C  0.76951978  0.07666549  0.21869167    -0.05800
C1334       C  0.79285746  0.09814456  0.22131872    -0.33200
C1335       C  0.78657532  0.12770169  0.22884833     0.36000
C1336       C  0.75654194  0.13647945  0.23494454    -0.06100
C1337       C  0.73324399  0.11479853  0.23405505    -0.33100
C1338       C  0.73948776  0.08512382  0.22574573     0.35900
H1339       H  0.81623684  0.09227628  0.21652158     0.16300
O1340       O  0.81014793  0.14781187  0.23060149    -0.60600
H1341       H  0.70994492  0.12116048  0.23854585     0.16300
O1342       O  0.71583102  0.06533279  0.22243884    -0.60700
H1343       H  0.71159868  0.05781529  0.24314125     0.43300
H1344       H  0.81451793  0.15365836  0.20937716     0.43300
C1345       C  0.83278294  0.02196128  0.14795509    -0.05800
C1346       C  0.82555938  0.01535915  0.11785766    -0.33200
C1347       C  0.84771060  0.01721259  0.09526808     0.36000
C1348       C  0.87813601  0.02471029  0.10281557    -0.06100
C1349       C  0.88534798  0.03040155  0.13337896    -0.33100
C1350       C  0.86284034  0.02957205  0.15572565     0.35900
H1351       H  0.80238449  0.00952344  0.11168753     0.16300
O1352       O  0.83929704  0.01124492  0.06599943    -0.60600
H1353       H  0.90841478  0.03604142  0.14000579     0.16300
O1354       O  0.87060698  0.03536770  0.18522069    -0.60700
H1355       H  0.86696479  0.05701318  0.18788535     0.43300
H1356       H  0.83102837  0.03028781  0.05800081     0.43300
C1357       C  0.04190826  0.79320105  0.17824024    -0.05800
C1358       C  0.04593681  0.77686061  0.20525755    -0.33200
C1359       C  0.07525276  0.76866353  0.21522541     0.36000
C1360       C  0.10098167  0.77683291  0.19807453    -0.06100
C1361       C  0.09659641  0.79092266  0.16996869    -0.33100
C1362       C  0.06758782  0.79916304  0.16006690     0.35900
H1363       H  0.02656303  0.77190962  0.21953048     0.16300
O1364       O  0.07863027  0.75510270  0.24290385    -0.60600
H1365       H  0.11600438  0.79676277  0.15604301     0.16300
O1366       O  0.06465117  0.81322182  0.13254380    -0.60700
H1367       H  0.07206607  0.83390951  0.13579989     0.43300
H1368       H  0.07627722  0.73345913  0.23892185     0.43300
C1369       C  0.92854500  0.79116003  0.17902414    -0.05800
C1370       C  0.92554388  0.77439212  0.20589714    -0.33200
C1371       C  0.89668625  0.76481863  0.21598273     0.36000
C1372       C  0.87042527  0.77204715  0.19909181    -0.06100
C1373       C  0.87388747  0.78660953  0.17109536    -0.33100
C1374       C  0.90242600  0.79595969  0.16096938     0.35900
H1375       H  0.94531029  0.77019790  0.22000074     0.16300
O1376       O  0.89418273  0.75098111  0.24359818    -0.60600
H1377       H  0.85405057  0.79195644  0.15747984     0.16300
O1378       O  0.90423014  0.81085403  0.13382514    -0.60700
H1379       H  0.91152491  0.79585736  0.11915359     0.43300
H1380       H  0.89939516  0.72981914  0.23986892     0.43300
C1381       C  0.98449911  0.92679411  0.09419335    -0.05800
C1382       C  0.96127320  0.92171680  0.11532997    -0.33200
C1383       C  0.96069458  0.89541937  0.13282396     0.36000
C1384       C  0.98395631  0.87397559  0.12973794    -0.06100
C1385       C  0.00751983  0.87959176  0.10906283    -0.33100
C1386       C  0.00772821  0.90547532  0.09120872     0.35900
H1387       H  0.94303325  0.93772755  0.11759363     0.16300
O1388       O  0.93721981  0.89090246  0.15269678    -0.60600
H1389       H  0.02554440  0.86346959  0.10611718     0.16300
O1390       O  0.03058662  0.90956443  0.07052807    -0.60700
H1391       H  0.04726849  0.91955275  0.08184653     0.43300
H1392       H  0.94453399  0.89917838  0.17219593     0.43300
C1393       C  0.20386162  0.91956120  0.77912154    -0.05800
C1394       C  0.22521324  0.94253727  0.77404199    -0.33200
C1395       C  0.21923348  0.97192976  0.78307529     0.36000
C1396       C  0.19143113  0.97872177  0.79731054    -0.06100
C1397       C  0.16975444  0.95588640  0.80111048    -0.33100
C1398       C  0.17576200  0.92671314  0.79253824     0.35900
H1399       H  0.24697988  0.93758818  0.76385238     0.16300
O1400       O  0.24126368  0.99334596  0.77909868    -0.60600
H1401       H  0.14788924  0.96037039  0.81131751     0.16300
O1402       O  0.15360753  0.90546812  0.79704517    -0.60700
H1403       H  0.15492887  0.90013960  0.81882893     0.43300
H1404       H  0.23756003  0.00160120  0.75855426     0.43300
C1405       C  0.20970264  0.08796435  0.80740528    -0.05800
C1406       C  0.21921050  0.09312468  0.77756190    -0.33200
C1407       C  0.22665910  0.12207106  0.76792631     0.36000
C1408       C  0.22408218  0.14606024  0.78824318    -0.06100
C1409       C  0.21745865  0.14033117  0.81864927    -0.33100
C1410       C  0.21039906  0.11160390  0.82835446     0.35900
H1411       H  0.21883607  0.07519204  0.76121880     0.16300
O1412       O  0.23379176  0.12696723  0.73813649    -0.60600
H1413       H  0.21665370  0.15840345  0.83483717     0.16300
O1414       O  0.20343831  0.10693387  0.85828211    -0.60700
H1415       H  0.18323292  0.11624619  0.86127059     0.43300
H1416       H  0.25622873  0.12489619  0.73711666     0.43300
C1417       C  0.12819585  0.04015615  0.86289110    -0.05800
C1418       C  0.13022070  0.06101426  0.88644854    -0.33200
C1419       C  0.10690645  0.06338762  0.90758813     0.36000
C1420       C  0.08104233  0.04507638  0.90492825    -0.06100
C1421       C  0.07835131  0.02523927  0.88064724    -0.33100
C1422       C  0.10176565  0.02258879  0.85971426     0.35900
H1423       H  0.15021109  0.07505505  0.88890222     0.16300
O1424       O  0.10915106  0.08414067  0.93022604    -0.60600
H1425       H  0.05838225  0.01115713  0.87838702     0.16300
O1426       O  0.09855592  0.00283731  0.83629580    -0.60700
H1427       H  0.08834209  0.01425680  0.81990324     0.43300
H1428       H  0.12284655  0.07514495  0.94562288     0.43300
C1429       C  0.92998584  0.83537158  0.78508706    -0.05800
C1430       C  0.92319911  0.82291739  0.75672736    -0.33200
C1431       C  0.89392631  0.81185590  0.75034309     0.36000
C1432       C  0.87108538  0.81278839  0.77270042    -0.06100
C1433       C  0.87864235  0.82333708  0.80159402    -0.33100
C1434       C  0.90757844  0.83440011  0.80793963     0.35900
H1435       H  0.94009121  0.82310804  0.73895078     0.16300
O1436       O  0.88763103  0.80149166  0.72184400    -0.60600
H1437       H  0.86178534  0.82362592  0.81942230     0.16300
O1438       O  0.91324589  0.84498729  0.83649542    -0.60700
H1439       H  0.92341414  0.82836963  0.84738014     0.43300
H1440       H  0.88196477  0.81941551  0.70986728     0.43300
C1441       C  0.03901785  0.85388469  0.76201512    -0.05800
C1442       C  0.04183771  0.82615315  0.74737208    -0.33200
C1443       C  0.07041664  0.81593683  0.73785621     0.36000
C1444       C  0.09651832  0.83344264  0.74325077    -0.06100
C1445       C  0.09314093  0.86237159  0.75449106    -0.33100
C1446       C  0.06481448  0.87271477  0.76375879     0.35900
H1447       H  0.02231922  0.81146215  0.74512566     0.16300
O1448       O  0.07291624  0.78777028  0.72621047    -0.60600
H1449       H  0.11298002  0.87646222  0.75784032     0.16300
O1450       O  0.06286848  0.90098626  0.77531625    -0.60700
H1451       H  0.07346114  0.90011341  0.79517323     0.43300
H1452       H  0.07149363  0.79046345  0.70396283     0.43300
C1453       C  0.98767144  0.90764790  0.84444126    -0.05800
C1454       C  0.96648449  0.90335321  0.86784354    -0.33200
C1455       C  0.96620023  0.92196192  0.89300802     0.36000
C1456       C  0.98670102  0.94594410  0.89487683    -0.06100
C1457       C  0.00775532  0.95064400  0.87154383    -0.33100
C1458       C  0.00878706  0.93135645  0.84668458     0.35900
H1459       H  0.95009615  0.88525953  0.86691698     0.16300
O1460       O  0.94487478  0.91730109  0.91506608    -0.60600
H1461       H  0.02363308  0.96915175  0.87273312     0.16300
O1462       O  0.02965258  0.93660420  0.82428533    -0.60700
H1463       H  0.04969260  0.93178438  0.83346399     0.43300
H1464       H  0.95253890  0.90003988  0.92693427     0.43300
C1465       C  0.92804977  0.22972444  0.77380785    -0.05800
C1466       C  0.91061526  0.24578397  0.79442630    -0.33200
C1467       C  0.88205663  0.25669885  0.78637663     0.36000
C1468       C  0.86957047  0.25061695  0.75757406    -0.06100
C1469       C  0.88764133  0.23601729  0.73611403    -0.33100
C1470       C  0.91697783  0.22583144  0.74401156     0.35900
H1471       H  0.91911836  0.24971489  0.81712794     0.16300
O1472       O  0.86600308  0.27261896  0.80732224    -0.60600
H1473       H  0.87848466  0.23117035  0.71386485     0.16300
O1474       O  0.93357973  0.21022929  0.72326042    -0.60700
H1475       H  0.94433088  0.22564564  0.71112907     0.43300
H1476       H  0.87071885  0.29384754  0.80286081     0.43300
C1477       C  0.03932107  0.21708130  0.76572055    -0.05800
C1478       C  0.04548783  0.24634067  0.75588338    -0.33200
C1479       C  0.07519864  0.25502384  0.74812979     0.36000
C1480       C  0.09902220  0.23414485  0.74948922    -0.06100
C1481       C  0.09244180  0.20447719  0.75749382    -0.33100
C1482       C  0.06285555  0.19584048  0.76537243     0.35900
H1483       H  0.02776456  0.26305537  0.75641251     0.16300
O1484       O  0.08115466  0.28445563  0.74173426    -0.60600
H1485       H  0.11060640  0.18824842  0.75892152     0.16300
O1486       O  0.05748032  0.16688150  0.77410681    -0.60700
H1487       H  0.04805105  0.15721148  0.75621388     0.43300
H1488       H  0.08631148  0.29364083  0.76149384     0.43300
C1489       C  0.98501338  0.13908584  0.90583204    -0.05800
C1490       C  0.96467060  0.16298691  0.90294409    -0.33200
C1491       C  0.96444735  0.18078357  0.87654131     0.36000
C1492       C  0.98490793  0.17484089  0.85271688    -0.06100
C1493       C  0.00649070  0.15216953  0.85674022    -0.33100
C1494       C  0.00667371  0.13448353  0.88287482     0.35900
H1495       H  0.94806953  0.16702393  0.92048323     0.16300
O1496       O  0.94456681  0.20420867  0.87449364    -0.60600
H1497       H  0.02274611  0.14738072  0.83907303     0.16300
O1498       O  0.02754456  0.11189548  0.88532701    -0.60700
H1499       H  0.04581934  0.12118171  0.89466514     0.43300
H1500       H  0.92482483  0.19521829  0.86838131     0.43300
C1501       C  0.78687613  0.97616553  0.77084946    -0.05800
C1502       C  0.80933891  0.95395486  0.77236778    -0.33200
C1503       C  0.80310219  0.92471483  0.76330682     0.36000
C1504       C  0.77405829  0.91713481  0.75200970    -0.06100
C1505       C  0.75238519  0.93974746  0.74797485    -0.33100
C1506       C  0.75854306  0.96909607  0.75739386     0.35900
H1507       H  0.83155374  0.95890957  0.78190158     0.16300
O1508       O  0.82538677  0.90348045  0.76612195    -0.60600
H1509       H  0.72984049  0.93422643  0.73961574     0.16300
O1510       O  0.73573310  0.98981536  0.75595292    -0.60700
H1511       H  0.73673214  0.99815756  0.73515811     0.43300
H1512       H  0.82632262  0.89850431  0.78800456     0.43300
C1513       C  0.76889899  0.08503834  0.78653421    -0.05800
C1514       C  0.76325731  0.10526467  0.81001430    -0.33200
C1515       C  0.75562446  0.13483099  0.80387670     0.36000
C1516       C  0.75323223  0.14485709  0.77378944    -0.06100
C1517       C  0.75669649  0.12428140  0.75012833    -0.33100
C1518       C  0.76477692  0.09453041  0.75631522     0.35900
H1519       H  0.76580549  0.09837917  0.83342655     0.16300
O1520       O  0.75117944  0.15396887  0.82755182    -0.60600
H1521       H  0.75461282  0.13162967  0.72681831     0.16300
O1522       O  0.77015964  0.07554715  0.73271963    -0.60700
H1523       H  0.79235292  0.07702540  0.72893908     0.43300
H1524       H  0.72911152  0.15269133  0.83202516     0.43300
C1525       C  0.83839501  0.03043584  0.85270895    -0.05800
C1526       C  0.86444719  0.01246549  0.85189065    -0.33200
C1527       C  0.88592318  0.01334000  0.87537866     0.36000
C1528       C  0.88112547  0.03179484  0.90062572    -0.06100
C1529       C  0.85455059  0.04889469  0.90201469    -0.33100
C1530       C  0.83352397  0.04875296  0.87810291     0.35900
H1531       H  0.86854370  0.99814976  0.83266580     0.16300
O1532       O  0.91098930  0.99525621  0.87399514    -0.60600
H1533       H  0.85041266  0.06296219  0.92137717     0.16300
O1534       O  0.80783713  0.06588672  0.88023402    -0.60700
H1535       H  0.81432758  0.08631692  0.87430784     0.43300
H1536       H  0.92542694  0.00574274  0.86037084     0.43300
C1537       C  0.21270861  0.80880205  0.11165859    -0.05800
C1538       C  0.18246413  0.81349699  0.10279594    -0.33200
C1539       C  0.17553679  0.82413701  0.07396060     0.36000
C1540       C  0.19908214  0.83092531  0.05343746    -0.06100
C1541       C  0.22935046  0.82483861  0.06165665    -0.33100
C1542       C  0.23628242  0.81390248  0.09070625     0.35900
H1543       H  0.16404531  0.80925911  0.11850619     0.16300
O1544       O  0.14557256  0.82838741  0.06627711    -0.60600
H1545       H  0.24770451  0.82996563  0.04616132     0.16300
O1546       O  0.26612643  0.80974806  0.09888179    -0.60700
H1547       H  0.27351624  0.82964525  0.10544742     0.43300
H1548       H  0.13916488  0.80966926  0.05615561     0.43300
C1549       C  0.21343216  0.84830219  0.94353078    -0.05800
C1550       C  0.22545795  0.81967689  0.93879294    -0.33200
C1551       C  0.23418339  0.81060726  0.90976545     0.36000
C1552       C  0.23097155  0.83031007  0.88509996    -0.06100
C1553       C  0.22088646  0.85946010  0.89014205    -0.33100
C1554       C  0.21223879  0.86858528  0.91899119     0.35900
H1555       H  0.22637083  0.80364339  0.95719587     0.16300
O1556       O  0.24272880  0.78158731  0.90521331    -0.60600
H1557       H  0.21848286  0.87490284  0.87132505     0.16300
O1558       O  0.20234128  0.89731871  0.92285011    -0.60700
H1559       H  0.18155455  0.89784655  0.91399713     0.43300
H1560       H  0.26405389  0.78043313  0.91255135     0.43300
C1561       C  0.08605691  0.94274955  0.99919416    -0.05800
C1562       C  0.10051814  0.93548593  0.02644756    -0.33200
C1563       C  0.12511587  0.91586022  0.02693664     0.36000
C1564       C  0.13573878  0.90335777  0.99965007    -0.06100
C1565       C  0.12127918  0.91119945  0.97225667    -0.33100
C1566       C  0.09650902  0.93068153  0.97195753     0.35900
H1567       H  0.09274378  0.94515850  0.04744043     0.16300
O1568       O  0.13930728  0.91009316  0.05404672    -0.60600
H1569       H  0.12900384  0.90208173  0.95099733     0.16300
O1570       O  0.08335005  0.93862137  0.94489741    -0.60700
H1571       H  0.06587295  0.92476772  0.94231515     0.43300
H1572       H  0.12590346  0.89559479  0.06464146     0.43300
C1573       C  0.75303184  0.23399177  0.06026878    -0.05800
C1574       C  0.77559645  0.24530541  0.07960510    -0.33200
C1575       C  0.76889600  0.25338501  0.10928231     0.36000
C1576       C  0.73925236  0.24924743  0.12089607    -0.06100
C1577       C  0.71599658  0.24013167  0.10088190    -0.33100
C1578       C  0.72273271  0.23258278  0.07064917     0.35900
H1579       H  0.79890651  0.24718959  0.07185693     0.16300
O1580       O  0.79187960  0.26463517  0.12703328    -0.60600
H1581       H  0.69295011  0.23732218  0.10905383     0.16300
O1582       O  0.69994041  0.22235879  0.05204330    -0.60700
H1583       H  0.69687802  0.20114995  0.05781702     0.43300
H1584       H  0.79032893  0.28661942  0.12494247     0.43300
C1585       C  0.74515036  0.21986347  0.94836412    -0.05800
C1586       C  0.73167258  0.24772750  0.94244579    -0.33200
C1587       C  0.72358838  0.25617432  0.91274071     0.36000
C1588       C  0.72901726  0.23666636  0.88847119    -0.06100
C1589       C  0.74085987  0.20828894  0.89464796    -0.33100
C1590       C  0.74857215  0.19969589  0.92412307     0.35900
H1591       H  0.72903747  0.26369799  0.96054349     0.16300
O1592       O  0.71325320  0.28453110  0.90733267    -0.60600
H1593       H  0.74509103  0.19294045  0.87630179     0.16300
O1594       O  0.76063826  0.17184950  0.92870665    -0.60700
H1595       H  0.74283925  0.15835526  0.93102490     0.43300
H1596       H  0.69144970  0.28408950  0.91301837     0.43300
C1597       C  0.87485138  0.12978168  0.00653171    -0.05800
C1598       C  0.87212552  0.15098195  0.02954775    -0.33200
C1599       C  0.84706109  0.17028552  0.03025579     0.36000
C1600       C  0.82482467  0.16924846  0.00702521    -0.06100
C1601       C  0.82808504  0.14820940  0.98378905    -0.33100
C1602       C  0.85257183  0.12845262  0.98362337     0.35900
H1603       H  0.88904906  0.15205923  0.04743040     0.16300
O1604       O  0.84497278  0.19045373  0.05336807    -0.60600
H1605       H  0.81130535  0.14666171  0.96582311     0.16300
O1606       O  0.85451218  0.10781812  0.96091296    -0.60700
H1607       H  0.86773096  0.11716693  0.94536217     0.43300
H1608       H  0.83531463  0.17932482  0.07027219     0.43300
C1609       C  0.77018670  0.79712781  0.11281307    -0.05800
C1610       C  0.79795781  0.81211134  0.10834362    -0.33200
C1611       C  0.80863214  0.81837140  0.07937772     0.36000
C1612       C  0.79142921  0.80994353  0.05371469    -0.06100
C1613       C  0.76415488  0.79404742  0.05789037    -0.33100
C1614       C  0.75348090  0.78757412  0.08715719     0.35900
H1615       H  0.81171508  0.81912712  0.12745335     0.16300
O1616       O  0.83600828  0.83298203  0.07653698    -0.60600
H1617       H  0.75061364  0.78742258  0.03848750     0.16300
O1618       O  0.72609401  0.77312108  0.09031139    -0.60700
H1619       H  0.73087546  0.75159039  0.08864168     0.43300
H1620       H  0.85129828  0.81702551  0.07380599     0.43300
C1621       C  0.80137331  0.79413259  0.94267970    -0.05800
C1622       C  0.77264657  0.78102057  0.93790593    -0.33200
C1623       C  0.76365499  0.77195838  0.90882069     0.36000
C1624       C  0.78357943  0.77598156  0.88423471    -0.06100
C1625       C  0.81325042  0.78622201  0.88962058    -0.33100
C1626       C  0.82226375  0.79523548  0.91850804     0.35900
H1627       H  0.75627163  0.78002203  0.95613947     0.16300
O1628       O  0.73430917  0.76245863  0.90413009    -0.60600
H1629       H  0.82896924  0.78895473  0.87095704     0.16300
O1630       O  0.85127463  0.80601502  0.92269819    -0.60700
H1631       H  0.85167454  0.82581395  0.91255119     0.43300
H1632       H  0.73496483  0.74048295  0.90671867     0.43300
C1633       C  0.88449243  0.93230922  0.99301324    -0.05800
C1634       C  0.89250393  0.90742653  0.97568998    -0.33200
C1635       C  0.87386137  0.88222928  0.97458200     0.36000
C1636       C  0.84679398  0.88142175  0.99139260    -0.06100
C1637       C  0.83835019  0.90645612  0.00831878    -0.33100
C1638       C  0.85677166  0.93200135  0.00887064     0.35900
H1639       H  0.91375886  0.90719868  0.96354121     0.16300
O1640       O  0.88310826  0.85803104  0.95818772    -0.60600
H1641       H  0.81760173  0.90604706  0.02148090     0.16300
O1642       O  0.84850505  0.95561198  0.02658962    -0.60700
H1643       H  0.83398527  0.96727454  0.01406776     0.43300
H1644       H  0.89430049  0.84520804  0.97277563     0.43300
loop_ 
_geom_bond_atom_site_label_1 
_geom_bond_atom_site_label_2 
_geom_bond_distance 
_geom_bond_site_symmetry_2 
_ccdc_geom_bond_type 
C1            N2   1.355       .  A
C1            N6   1.365   1_554  A
C1         C1612   1.481       .  S
N2            C3   1.349   1_554  A
C3            N4   1.351       .  A
C3         C1636   1.468       .  S
N4            C5   1.358       .  A
C5            N6   1.366       .  A
C5         C1621   1.481       .  S
C7            N8   1.361       .  A
C7           N12   1.367       .  A
C7         C1573   1.484       .  S
N8            C9   1.355       .  A
C9           N10   1.354   1_554  A
C9         C1600   1.487       .  S
N10          C11   1.358       .  A
C11          N12   1.367   1_556  A
C11        C1585   1.491       .  S
C13          N14   1.361   1_554  A
C13          N18   1.355       .  A
C13        C1540   1.475       .  S
N14          C15   1.364       .  A
C15          N16   1.359       .  A
C15        C1549   1.482       .  S
N16          C17   1.354       .  A
C17          N18   1.351   1_556  A
C17        C1564   1.482       .  S
C19          N20   1.356       .  A
C19          N24   1.365       .  A
C19        C1513   1.481       .  S
N20          C21   1.351       .  A
C21          N22   1.354       .  A
C21        C1525   1.479       .  S
N22          C23   1.361       .  A
C23          N24   1.367       .  A
C23        C1501   1.488   1_545  S
C25          N26   1.361       .  A
C25          N30   1.363       .  A
C25        C1465   1.479       .  S
N26          C27   1.361   1_655  A
C27          N28   1.359       .  A
C27        C1477   1.479       .  S
N28          C29   1.357   1_455  A
C29          N30   1.359       .  A
C29        C1492   1.490       .  S
C31          N32   1.352       .  A
C31          N36   1.362       .  A
C31        C1429   1.482       .  S
N32          C33   1.350       .  A
C33          N34   1.355   1_655  A
C33        C1453   1.481       .  S
N34          C35   1.363       .  A
C35          N36   1.364   1_455  A
C35        C1441   1.487       .  S
C37          N38   1.352       .  A
C37          N42   1.363       .  A
C37        C1405   1.469       .  S
N38          C39   1.345       .  A
C39          N40   1.350       .  A
C39        C1417   1.465       .  S
N40          C41   1.359       .  A
C41          N42   1.364       .  A
C41        C1396   1.484   1_545  S
C43          N44   1.365       .  A
C43          N48   1.362       .  A
C43        C1369   1.488       .  S
N44          C45   1.364   1_655  A
C45          N46   1.360       .  A
C45        C1357   1.489       .  S
N46          C47   1.355   1_455  A
C47          N48   1.356       .  A
C47        C1384   1.488       .  S
C49          N50   1.359       .  A
C49          N54   1.372       .  A
C49        C1333   1.491       .  S
N50          C51   1.349       .  A
C51          N52   1.348   1_545  A
C51        C1345   1.469       .  S
N52          C53   1.359       .  A
C53          N54   1.371   1_565  A
C53        C1321   1.495       .  S
C55          N56   1.365       .  A
C55          N60   1.359       .  A
C55        C1297   1.483       .  S
N56          C57   1.365   1_655  A
C57          N58   1.359       .  A
C57        C1309   1.481       .  S
N58          C59   1.353   1_455  A
C59          N60   1.352       .  A
C59        C1285   1.477       .  S
Zr61         O62   2.440       .  S
Zr61         O63   2.432       .  S
Zr61         O64   2.407       .  S
Zr61         O67   2.411       .  S
Zr61         O69   2.373       .  S
Zr61         O70   2.376       .  S
Zr61         O71   2.402       .  S
Zr61         O72   2.396       .  S
O62         H118   0.990       .  S
O62         H126   0.991       .  S
O63          C83   1.285       .  A
O64          C85   1.280       .  A
O65         Zr75   2.466       .  S
O65          C84   1.289       .  A
O66         Zr74   2.463       .  S
O66          C85   1.289       .  A
O67          C84   1.282       .  A
O68         Zr76   2.431       .  S
O68          C83   1.282       .  A
O69         Zr74   2.398       .  S
O69         Zr76   2.380       .  S
O70         Zr75   2.397       .  S
O70         Zr76   2.377       .  S
O70         H105   0.966       .  S
O71         Zr74   2.406       .  S
O71         Zr91   2.392       .  S
O71         H108   0.965       .  S
O72         Zr75   2.392       .  S
O72         Zr91   2.401       .  S
Zr73         O98   2.445       .  S
Zr73         O92   2.421       .  S
Zr73        O100   2.408       .  S
Zr73         O88   2.412       .  S
Zr73         O79   2.396       .  S
Zr73         O80   2.398       .  S
Zr73         O81   2.371       .  S
Zr73         O82   2.378       .  S
Zr74         O93   2.437       .  S
Zr74         O86   2.435       .  S
Zr74         O87   2.461       .  S
Zr74         O80   2.401       .  S
Zr74         O81   2.395       .  S
Zr75         O77   2.435       .  S
Zr75         O99   2.437       .  S
Zr75        O101   2.452       .  S
Zr75         O79   2.398       .  S
Zr75         O82   2.391       .  S
Zr76        O102   2.435       .  S
Zr76        O103   2.435       .  S
Zr76         O78   2.435       .  S
Zr76         O79   2.393       .  S
Zr76         O80   2.402       .  S
O77         H114   0.990       .  S
O78         H109   0.991       .  S
O78         H123   0.990       .  S
O80         H106   0.966       .  S
O81         Zr91   2.377       .  S
O82         Zr91   2.378       .  S
O82         H107   0.966       .  S
C83        C1249   1.496       .  S
C84        C1225   1.485       .  S
C85        C1237   1.487       .  S
O86         H122   0.990       .  S
O87          C89   1.290       .  A
O88          C89   1.282       .  A
C89        C1261   1.484       .  S
O90         Zr91   2.439       .  S
O90         H119   0.990       .  S
Zr91         O94   2.437       .  S
Zr91         O95   2.441       .  S
Zr91         O96   2.424       .  S
O92          C97   1.284       .  A
O93         H110   0.990       .  S
O93         H125   0.990       .  S
O94         H111   0.990       .  S
O95         H115   0.990       .  S
O95         H124   0.990       .  S
O96          C97   1.281       .  A
C97        C1273   1.479       .  S
O98         H117   0.990       .  S
O98         H121   0.990       .  S
O99         H113   0.990       .  S
O99         H120   0.990       .  S
O100        C104   1.282       .  A
O101        C104   1.288       .  A
O102        H112   0.990       .  S
O103        H116   0.989       .  S
C104       C1312   1.477       .  S
C127        N128   1.366       .  A
C127        N132   1.352       .  A
C127       C1276   1.485       .  S
N128        C129   1.368   1_545  A
C129        N130   1.363       .  A
C129       C1216   1.490       .  S
N130        C131   1.355   1_565  A
C131        N132   1.347       .  A
C131       C1204   1.482       .  S
Zr133       O134   2.442       .  S
Zr133       O135   2.428       .  S
Zr133       O136   2.423       .  S
Zr133       O139   2.422       .  S
Zr133       O141   2.374       .  S
Zr133       O142   2.377       .  S
Zr133       O143   2.407       .  S
Zr133       O144   2.396       .  S
O134        H190   0.991       .  S
O134        H198   0.990       .  S
O135        C155   1.284       .  A
O136        C157   1.281       .  A
O137       Zr147   2.457       .  S
O137        C156   1.288       .  A
O138       Zr146   2.460       .  S
O138        C157   1.287       .  A
O139        C156   1.284       .  A
O140       Zr148   2.406       .  S
O140        C155   1.277       .  A
O141       Zr146   2.401       .  S
O141       Zr148   2.386       .  S
O142       Zr147   2.399       .  S
O142       Zr148   2.383       .  S
O142        H177   0.966       .  S
O143       Zr146   2.408       .  S
O143       Zr163   2.397       .  S
O143        H180   0.965       .  S
O144       Zr147   2.398       .  S
O144       Zr163   2.395       .  S
Zr145       O170   2.444       .  S
Zr145       O164   2.408       .  S
Zr145       O172   2.410       .  S
Zr145       O160   2.411       .  S
Zr145       O151   2.391       .  S
Zr145       O152   2.393       .  S
Zr145       O153   2.376       .  S
Zr145       O154   2.375       .  S
Zr146       O165   2.438       .  S
Zr146       O158   2.435       .  S
Zr146       O159   2.464       .  S
Zr146       O152   2.402       .  S
Zr146       O153   2.393       .  S
Zr147       O149   2.434       .  S
Zr147       O171   2.435       .  S
Zr147       O173   2.461       .  S
Zr147       O151   2.397       .  S
Zr147       O154   2.392       .  S
Zr148       O174   2.436       .  S
Zr148       O175   2.436       .  S
Zr148       O150   2.437       .  S
Zr148       O151   2.391       .  S
Zr148       O152   2.389       .  S
O149        H186   0.990       .  S
O150        H181   0.990       .  S
O150        H195   0.990       .  S
O152        H178   0.965       .  S
O153       Zr163   2.376       .  S
O154       Zr163   2.372       .  S
O154        H179   0.964       .  S
C155       C1165   1.479       .  S
C156       C1177   1.486       .  S
C157       C1189   1.482       .  S
O158        H194   0.990       .  S
O159        C161   1.290       .  A
O160        C161   1.282       .  A
C161       C1213   1.482       .  S
O162       Zr163   2.435       .  S
O162        H191   0.990       .  S
Zr163       O166   2.434       .  S
Zr163       O167   2.438       .  S
Zr163       O168   2.431       .  S
O164        C169   1.281       .  A
O165        H182   0.990       .  S
O165        H197   0.990       .  S
O166        H183   0.990       .  S
O167        H187   0.990       .  S
O167        H196   0.990       .  S
O168        C169   1.283       .  A
C169       C1537   1.471       .  S
O170        H189   0.990       .  S
O170        H193   0.990       .  S
O171        H185   0.990       .  S
O171        H192   0.990       .  S
O172        C176   1.282       .  A
O173        C176   1.290       .  A
O174        H184   0.990       .  S
O175        H188   0.989       .  S
C176       C1360   1.484       .  S
Zr199       O200   2.443       .  S
Zr199       O201   2.439       .  S
Zr199       O202   2.415       .  S
Zr199       O205   2.425       .  S
Zr199       O207   2.373       .  S
Zr199       O208   2.377       .  S
Zr199       O209   2.411       .  S
Zr199       O210   2.395       .  S
O200        H256   0.990       .  S
O200        H264   0.991       .  S
O201        C221   1.285       .  A
O202        C223   1.280       .  A
O203       Zr213   2.462       .  S
O203        C222   1.289       .  A
O204       Zr212   2.450       .  S
O204        C223   1.286       .  A
O205        C222   1.284       .  A
O206       Zr214   2.430       .  S
O206        C221   1.281       .  A
O207       Zr212   2.404       .  S
O207       Zr214   2.377       .  S
O208       Zr213   2.399       .  S
O208       Zr214   2.383       .  S
O208        H243   0.966       .  S
O209       Zr212   2.407       .  S
O209       Zr229   2.403       .  S
O209        H246   0.966       .  S
O210       Zr213   2.395       .  S
O210       Zr229   2.395       .  S
Zr211       O236   2.443       .  S
Zr211       O230   2.437       .  S
Zr211       O238   2.412       .  S
Zr211       O226   2.415       .  S
Zr211       O217   2.398       .  S
Zr211       O218   2.401       .  S
Zr211       O219   2.369       .  S
Zr211       O220   2.376       .  S
Zr212       O231   2.436       .  S
Zr212       O224   2.434       .  S
Zr212       O225   2.460       .  S
Zr212       O218   2.403       .  S
Zr212       O219   2.390       .  S
Zr213       O215   2.434       .  S
Zr213       O237   2.436       .  S
Zr213       O239   2.460       .  S
Zr213       O217   2.396       .  S
Zr213       O220   2.398       .  S
Zr214       O240   2.436       .  S
Zr214       O241   2.435       .  S
Zr214       O216   2.438       .  S
Zr214       O217   2.400       .  S
Zr214       O218   2.404       .  S
O215        H252   0.990       .  S
O216        H247   0.990       .  S
O216        H261   0.990       .  S
O218        H244   0.965       .  S
O219       Zr229   2.371       .  S
O220       Zr229   2.379       .  S
O220        H245   0.966       .  S
C221       C1336   1.485       .  S
C222       C1576   1.493       .  S
C223       C1300   1.478       .  S
O224        H260   0.990       .  S
O225        C227   1.289       .  A
O226        C227   1.282       .  A
C227       C1129   1.484       .  S
O228       Zr229   2.438       .  S
O228        H257   0.990       .  S
Zr229       O232   2.437       .  S
Zr229       O233   2.438       .  S
Zr229       O234   2.441       .  S
O230        C235   1.286       .  A
O231        H248   0.990       .  S
O231        H263   0.990       .  S
O232        H249   0.990       .  S
O233        H253   0.990       .  S
O233        H262   0.990       .  S
O234        C235   1.285       .  A
C235       C1141   1.493       .  S
O236        H255   0.990       .  S
O236        H259   0.990       .  S
O237        H251   0.990       .  S
O237        H258   0.990       .  S
O238        C242   1.282       .  A
O239        C242   1.289       .  A
O240        H250   0.990       .  S
O241        H254   0.990       .  S
C242       C1153   1.477       .  S
Zr265       O266   2.440       .  S
Zr265       O267   2.435       .  S
Zr265       O268   2.418       .  S
Zr265       O271   2.411       .  S
Zr265       O273   2.377       .  S
Zr265       O274   2.377       .  S
Zr265       O275   2.400       .  S
Zr265       O276   2.400       .  S
O266        H322   0.990       .  S
O266        H330   0.990       .  S
O267        C287   1.286       .  A
O268        C289   1.282       .  A
O269       Zr279   2.453       .  S
O269        C288   1.288       .  A
O270       Zr278   2.465       .  S
O270        C289   1.290       .  A
O271        C288   1.282       .  A
O272       Zr280   2.424       .  S
O272        C287   1.281       .  A
O273       Zr278   2.403       .  S
O273       Zr280   2.381       .  S
O274       Zr279   2.394       .  S
O274       Zr280   2.375       .  S
O274        H309   0.966       .  S
O275       Zr278   2.398       .  S
O275       Zr295   2.396       .  S
O275        H312   0.966       .  S
O276       Zr279   2.394       .  S
O276       Zr295   2.396       .  S
Zr277       O302   2.444       .  S
Zr277       O296   2.421       .  S
Zr277       O304   2.413       .  S
Zr277       O292   2.406       .  S
Zr277       O283   2.393       .  S
Zr277       O284   2.399       .  S
Zr277       O285   2.370       .  S
Zr277       O286   2.377       .  S
Zr278       O297   2.437       .  S
Zr278       O290   2.433       .  S
Zr278       O291   2.470       .  S
Zr278       O284   2.402       .  S
Zr278       O285   2.388       .  S
Zr279       O281   2.437       .  S
Zr279       O303   2.436       .  S
Zr279       O305   2.458       .  S
Zr279       O283   2.395       .  S
Zr279       O286   2.393       .  S
Zr280       O306   2.434       .  S
Zr280       O307   2.435       .  S
Zr280       O282   2.436       .  S
Zr280       O283   2.394       .  S
Zr280       O284   2.399       .  S
O281        H318   0.990       .  S
O282        H313   0.990       .  S
O282        H327   0.990       .  S
O284        H310   0.965       .  S
O285       Zr295   2.373       .  S
O286       Zr295   2.380       .  S
O286        H311   0.966       .  S
C287       C1093   1.490       .  S
C288       C1105   1.477       .  S
C289       C1117   1.481       .  S
O290        H326   0.990       .  S
O291        C293   1.291       .  A
O292        C293   1.281       .  A
C293       C1372   1.484       .  S
O294       Zr295   2.436       .  S
O294        H323   0.990       .  S
Zr295       O298   2.436       .  S
Zr295       O299   2.438       .  S
Zr295       O300   2.433       .  S
O296        C301   1.284       .  A
O297        H314   0.990       .  S
O297        H329   0.990       .  S
O298        H315   0.990       .  S
O299        H319   0.990       .  S
O299        H328   0.990       .  S
O300        C301   1.283       .  A
C301       C1609   1.488       .  S
O302        H321   0.990       .  S
O302        H325   0.990       .  S
O303        H317   0.990       .  S
O303        H324   0.990       .  S
O304        C308   1.282       .  A
O305        C308   1.288       .  A
O306        H316   0.990       .  S
O307        H320   0.989       .  S
C308       C1324   1.485       .  S
C331        N332   1.360       .  A
C331        N336   1.359       .  A
C331       C1264   1.486       .  S
N332        C333   1.362   1_554  A
C333        N334   1.364       .  A
C333       C1081   1.481       .  S
N334        C335   1.359   1_556  A
C335        N336   1.356       .  A
C335       C1069   1.494       .  S
Zr337       O338   2.442       .  S
Zr337       O339   2.424       .  S
Zr337       O340   2.426       .  S
Zr337       O343   2.411       .  S
Zr337       O345   2.374       .  S
Zr337       O346   2.381       .  S
Zr337       O347   2.406       .  S
Zr337       O348   2.392       .  S
O338        H394   0.991       .  S
O338        H402   0.990       .  S
O339        C359   1.282       .  A
O340        C361   1.280       .  A
O341       Zr351   2.459       .  S
O341        C360   1.289       .  A
O342       Zr350   2.446       .  S
O342        C361   1.285       .  A
O343        C360   1.281       .  A
O344       Zr352   2.401       .  S
O344        C359   1.276       .  A
O345       Zr350   2.402       .  S
O345       Zr352   2.385       .  S
O346       Zr351   2.392       .  S
O346       Zr352   2.389       .  S
O346        H381   0.965       .  S
O347       Zr350   2.404       .  S
O347       Zr367   2.400       .  S
O347        H384   0.966       .  S
O348       Zr351   2.394       .  S
O348       Zr367   2.389       .  S
Zr349       O374   2.446       .  S
Zr349       O368   2.397       .  S
Zr349       O376   2.411       .  S
Zr349       O364   2.417       .  S
Zr349       O355   2.387       .  S
Zr349       O356   2.389       .  S
Zr349       O357   2.376       .  S
Zr349       O358   2.379       .  S
Zr350       O369   2.437       .  S
Zr350       O362   2.434       .  S
Zr350       O363   2.450       .  S
Zr350       O356   2.402       .  S
Zr350       O357   2.391       .  S
Zr351       O353   2.435       .  S
Zr351       O375   2.436       .  S
Zr351       O377   2.460       .  S
Zr351       O355   2.398       .  S
Zr351       O358   2.385       .  S
Zr352       O378   2.435       .  S
Zr352       O379   2.435       .  S
Zr352       O354   2.437       .  S
Zr352       O355   2.389       .  S
Zr352       O356   2.386       .  S
O353        H390   0.990       .  S
O354        H385   0.990       .  S
O354        H399   0.990       .  S
O356        H382   0.965       .  S
O357       Zr367   2.374       .  S
O358       Zr367   2.379       .  S
O358        H383   0.965       .  S
C359       C1408   1.467       .  S
C360       C1084   1.486       .  S
C361       C1480   1.475       .  S
O362        H398   0.990       .  S
O363        C365   1.288       .  A
O364        C365   1.283       .  A
C365       C1033   1.483       .  S
O366       Zr367   2.439       .  S
O366        H395   0.990       .  S
Zr367       O370   2.438       .  S
Zr367       O371   2.439       .  S
Zr367       O372   2.421       .  S
O368        C373   1.279       .  A
O369        H386   0.990       .  S
O369        H401   0.990       .  S
O370        H387   0.990       .  S
O371        H391   0.990       .  S
O371        H400   0.990       .  S
O372        C373   1.280       .  A
C373       C1045   1.462       .  S
O374        H393   0.990       .  S
O374        H397   0.990       .  S
O375        H389   0.990       .  S
O375        H396   0.990       .  S
O376        C380   1.281       .  A
O377        C380   1.289       .  A
O378        H388   0.990       .  S
O379        H392   0.990       .  S
C380       C1057   1.480       .  S
Zr403       O404   2.439       .  S
Zr403       O405   2.406       .  S
Zr403       O406   2.409       .  S
Zr403       O409   2.408       .  S
Zr403       O411   2.374       .  S
Zr403       O412   2.374       .  S
Zr403       O413   2.396       .  S
Zr403       O414   2.391       .  S
O404        H460   0.991       .  S
O404        H468   0.990       .  S
O405        C425   1.280       .  A
O406        C427   1.281       .  A
O407       Zr417   2.448       .  S
O407        C426   1.286       .  A
O408       Zr416   2.447       .  S
O408        C427   1.287       .  A
O409        C426   1.282       .  A
O410       Zr418   2.434       .  S
O410        C425   1.284       .  A
O411       Zr416   2.397       .  S
O411       Zr418   2.374       .  S
O412       Zr417   2.394       .  S
O412       Zr418   2.371       .  S
O412        H447   0.966       .  S
O413       Zr416   2.403       .  S
O413       Zr433   2.388       .  S
O413        H450   0.966       .  S
O414       Zr417   2.396       .  S
O414       Zr433   2.393       .  S
Zr415       O440   2.442       .  S
Zr415       O434   2.406       .  S
Zr415       O442   2.412       .  S
Zr415       O430   2.415       .  S
Zr415       O421   2.391       .  S
Zr415       O422   2.394       .  S
Zr415       O423   2.372       .  S
Zr415       O424   2.376       .  S
Zr416       O435   2.436       .  S
Zr416       O428   2.435       .  S
Zr416       O429   2.461       .  S
Zr416       O422   2.396       .  S
Zr416       O423   2.387       .  S
Zr417       O419   2.434       .  S
Zr417       O441   2.437       .  S
Zr417       O443   2.451       .  S
Zr417       O421   2.394       .  S
Zr417       O424   2.385       .  S
Zr418       O444   2.434       .  S
Zr418       O445   2.434       .  S
Zr418       O420   2.436       .  S
Zr418       O421   2.398       .  S
Zr418       O422   2.399       .  S
O419        H456   0.990       .  S
O420        H451   0.990       .  S
O420        H465   0.990       .  S
O422        H448   0.966       .  S
O423       Zr433   2.382       .  S
O424       Zr433   2.383       .  S
O424        H449   0.966       .  S
C425       C1393   1.483       .  S
C426       C1444   1.473       .  S
C427       C1552   1.471       .  S
O428        H464   0.990       .  S
O429        C431   1.289       .  A
O430        C431   1.282       .  A
C431       C1012   1.480       .  S
O432       Zr433   2.439       .  S
O432        H461   0.990       .  S
Zr433       O436   2.437       .  S
Zr433       O437   2.438       .  S
Zr433       O438   2.419       .  S
O434        C439   1.281       .  A
O435        H452   0.990       .  S
O435        H467   0.990       .  S
O436        H453   0.990       .  S
O437        H457   0.990       .  S
O437        H466   0.990       .  S
O438        C439   1.281       .  A
C439       C1021   1.473       .  S
O440        H459   0.990       .  S
O440        H463   0.990       .  S
O441        H455   0.990       .  S
O441        H462   0.990       .  S
O442        C446   1.282       .  A
O443        C446   1.287       .  A
O444        H454   0.990       .  S
O445        H458   0.990       .  S
C446        C997   1.478       .  S
Zr469       O470   2.443       .  S
Zr469       O471   2.437       .  S
Zr469       O472   2.425       .  S
Zr469       O475   2.410       .  S
Zr469       O477   2.372       .  S
Zr469       O478   2.378       .  S
Zr469       O479   2.408       .  S
Zr469       O480   2.400       .  S
O470        H526   0.990       .  S
O470        H534   0.991       .  S
O471        C491   1.285       .  A
O472        C493   1.281       .  A
O473       Zr483   2.461       .  S
O473        C492   1.289       .  A
O474       Zr482   2.452       .  S
O474        C493   1.286       .  A
O475        C492   1.281       .  A
O476       Zr484   2.415       .  S
O476        C491   1.279       .  A
O477       Zr482   2.398       .  S
O477       Zr484   2.386       .  S
O478       Zr483   2.399       .  S
O478       Zr484   2.377       .  S
O478        H513   0.966       .  S
O479       Zr482   2.405       .  S
O479       Zr499   2.403       .  S
O479        H516   0.966       .  S
O480       Zr483   2.397       .  S
O480       Zr499   2.392       .  S
Zr481       O506   2.447       .  S
Zr481       O500   2.417       .  S
Zr481       O508   2.414       .  S
Zr481       O496   2.414       .  S
Zr481       O487   2.394       .  S
Zr481       O488   2.396       .  S
Zr481       O489   2.375       .  S
Zr481       O490   2.377       .  S
Zr482       O501   2.437       .  S
Zr482       O494   2.434       .  S
Zr482       O495   2.460       .  S
Zr482       O488   2.400       .  S
Zr482       O489   2.396       .  S
Zr483       O485   2.434       .  S
Zr483       O507   2.438       .  S
Zr483       O509   2.459       .  S
Zr483       O487   2.395       .  S
Zr483       O490   2.398       .  S
Zr484       O510   2.435       .  S
Zr484       O511   2.435       .  S
Zr484       O486   2.437       .  S
Zr484       O487   2.391       .  S
Zr484       O488   2.394       .  S
O485        H522   0.990       .  S
O486        H517   0.990       .  S
O486        H531   0.990       .  S
O488        H514   0.965       .  S
O489       Zr499   2.380       .  S
O490       Zr499   2.376       .  S
O490        H515   0.966       .  S
C491       C1516   1.477       .  S
C492       C1468   1.483       .  S
C493       C1588   1.482       .  S
O494        H530   0.990       .  S
O495        C497   1.289       .  A
O496        C497   1.282       .  A
C497        C976   1.484       .  S
O498       Zr499   2.438       .  S
O498        H527   0.990       .  S
Zr499       O502   2.434       .  S
Zr499       O503   2.439       .  S
Zr499       O504   2.437       .  S
O500        C505   1.283       .  A
O501        H518   0.990       .  S
O501        H533   0.990       .  S
O502        H519   0.989       .  S
O503        H523   0.990       .  S
O503        H532   0.990       .  S
O504        C505   1.283       .  A
C505        C985   1.485       .  S
O506        H525   0.990       .  S
O506        H529   0.990       .  S
O507        H521   0.990       .  S
O507        H528   0.990       .  S
O508        C512   1.282       .  A
O509        C512   1.290       .  A
O510        H520   0.990       .  S
O511        H524   0.990       .  S
C512        C961   1.485       .  S
Zr535       O536   2.439       .  S
Zr535       O537   2.414       .  S
Zr535       O538   2.424       .  S
Zr535       O541   2.406       .  S
Zr535       O543   2.368       .  S
Zr535       O544   2.379       .  S
Zr535       O545   2.396       .  S
Zr535       O546   2.397       .  S
O536        H592   0.990       .  S
O536        H600   0.990       .  S
O537        C557   1.282       .  A
O538        C559   1.283       .  A
O539       Zr549   2.460       .  S
O539        C558   1.289       .  A
O540       Zr548   2.439       .  S
O540        C559   1.285       .  A
O541        C558   1.281       .  A
O542       Zr550   2.429       .  S
O542        C557   1.282       .  A
O543       Zr548   2.392       .  S
O543       Zr550   2.379       .  S
O544       Zr549   2.393       .  S
O544       Zr550   2.371       .  S
O544        H579   0.965       .  S
O545       Zr548   2.402       .  S
O545       Zr565   2.394       .  S
O545        H582   0.966       .  S
O546       Zr549   2.393       .  S
O546       Zr565   2.395       .  S
Zr547       O572   2.440       .  S
Zr547       O566   2.427       .  S
Zr547       O574   2.422       .  S
Zr547       O562   2.427       .  S
Zr547       O553   2.400       .  S
Zr547       O554   2.399       .  S
Zr547       O555   2.372       .  S
Zr547       O556   2.379       .  S
Zr548       O567   2.437       .  S
Zr548       O560   2.436       .  S
Zr548       O561   2.441       .  S
Zr548       O554   2.400       .  S
Zr548       O555   2.398       .  S
Zr549       O551   2.435       .  S
Zr549       O573   2.437       .  S
Zr549       O575   2.459       .  S
Zr549       O553   2.397       .  S
Zr549       O556   2.393       .  S
Zr550       O576   2.438       .  S
Zr550       O577   2.434       .  S
Zr550       O552   2.437       .  S
Zr550       O553   2.393       .  S
Zr550       O554   2.400       .  S
O551        H588   0.990       .  S
O552        H583   0.990       .  S
O552        H597   0.990       .  S
O554        H580   0.966       .  S
O555       Zr565   2.381       .  S
O556       Zr565   2.382       .  S
O556        H581   0.965       .  S
C557       C1432   1.481       .  S
C558       C1504   1.479       .  S
C559       C1624   1.473       .  S
O560        H596   0.990       .  S
O561        C563   1.284       .  A
O562        C563   1.285       .  A
C563        C937   1.480       .  S
O564       Zr565   2.439       .  S
O564        H593   0.990       .  S
Zr565       O568   2.437       .  S
Zr565       O569   2.439       .  S
Zr565       O570   2.424       .  S
O566        C571   1.284       .  A
O567        H584   0.990       .  S
O567        H599   0.990       .  S
O568        H585   0.990       .  S
O569        H589   0.990       .  S
O569        H598   0.990       .  S
O570        C571   1.281       .  A
C571        C949   1.480       .  S
O572        H591   0.990       .  S
O572        H595   0.990       .  S
O573        H587   0.990       .  S
O573        H594   0.990       .  S
O574        C578   1.282       .  A
O575        C578   1.288       .  A
O576        H586   0.990       .  S
O577        H590   0.990       .  S
C578        C925   1.482       .  S
C601        N602   1.365       .  A
C601        N606   1.355       .  A
C601        C952   1.485       .  S
N602        C603   1.366       .  A
C603        N604   1.361       .  A
C603       C1009   1.488       .  S
N604        C605   1.354       .  A
C605        N606   1.350       .  A
C605        C913   1.476       .  S
C607        N608   1.356       .  A
C607        N612   1.358       .  A
C607       C1048   1.462       .  S
N608        C609   1.350       .  A
C609        N610   1.349       .  A
C609        C901   1.469       .  S
N610        C611   1.356       .  A
C611        N612   1.358       .  A
C611       C1024   1.473       .  S
C613        N614   1.364       .  A
C613        N618   1.362       .  A
C613        C973   1.486       .  S
N614        C615   1.364       .  A
C615        N616   1.361       .  A
C615       C1060   1.484       .  S
N616        C617   1.357       .  A
C617        N618   1.357       .  A
C617        C889   1.490       .  S
C619        N620   1.367       .  A
C619        N624   1.355       .  A
C619        C988   1.482       .  S
N620        C621   1.369       .  A
C621        N622   1.360       .  A
C621        C940   1.487       .  S
N622        C623   1.351       .  A
C623        N624   1.349       .  A
C623        C877   1.477       .  S
C625        N626   1.365       .  A
C625        N630   1.362       .  A
C625       C1156   1.482       .  S
N626        C627   1.364       .  A
C627        N628   1.361       .  A
C627       C1240   1.494       .  S
N628        C629   1.353       .  A
C629        N630   1.356       .  A
C629        C868   1.482       .  S
C631        N632   1.359       .  A
C631        N636   1.367       .  A
C631       C1144   1.495       .  S
N632        C633   1.354       .  A
C633        N634   1.356       .  A
C633        C853   1.479       .  S
N634        C635   1.362       .  A
C635        N636   1.367       .  A
C635       C1120   1.489       .  S
C637        N638   1.365       .  A
C637        N642   1.358       .  A
C637       C1108   1.485       .  S
N638        C639   1.366       .  A
C639        N640   1.363       .  A
C639       C1192   1.488       .  S
N640        C641   1.355       .  A
C641        N642   1.353       .  A
C641        C841   1.483       .  S
C643        N644   1.357       .  A
C643        N648   1.372       .  A
C643       C1252   1.495       .  S
N644        C645   1.347       .  A
C645        N646   1.351       .  A
C645        C829   1.473       .  S
N646        C647   1.362       .  A
C647        N648   1.373       .  A
C647       C1180   1.494       .  S
C649        N650   1.352       .  A
C649        N654   1.371       .  A
C649       C1096   1.497       .  S
N650        C651   1.347       .  A
C651        N652   1.352       .  A
C651        C817   1.470       .  S
N652        C653   1.360       .  A
C653        N654   1.372       .  A
C653        C928   1.490       .  S
C655        N656   1.361       .  A
C655        N660   1.364       .  A
C655       C1132   1.488       .  S
N656        C657   1.356       .  A
C657        N658   1.356       .  A
C657        C805   1.491       .  S
N658        C659   1.361       .  A
C659        N660   1.365       .  A
C659        C964   1.488       .  S
C661        N662   1.367       .  A
C661        N666   1.355       .  A
C661       C1168   1.487       .  S
N662        C663   1.368       .  A
C663        N664   1.360       .  A
C663       C1000   1.487       .  S
N664        C665   1.351       .  A
C665        N666   1.347       .  A
C665        C793   1.470       .  S
C667        N668   1.361       .  A
C667        N672   1.364       .  A
C667       C1228   1.487       .  S
N668        C669   1.356       .  A
C669        N670   1.356       .  A
C669        C781   1.488       .  S
N670        C671   1.362       .  A
C671        N672   1.366       .  A
C671       C1036   1.488       .  S
O673       Zr709   2.439   1_566  S
O673        C684   1.292       .  A
O674       Zr708   2.425   1_565  S
O674        C685   1.289   1_554  A
O675       Zr681   2.442       .  S
O675        C686   1.293       .  A
O676       Zr681   2.425   1_554  S
O676        C687   1.290       .  A
O677       Zr711   2.471   1_565  S
O677        C687   1.298       .  A
O678       Zr710   2.421   1_565  S
O678        C686   1.288       .  A
O679       Zr681   2.437   1_455  S
O679        C685   1.291       .  A
O680       Zr681   2.422       .  S
O680        C684   1.290       .  A
Zr681       O682   2.336   1_666  S
Zr681       O683   2.333   1_565  S
Zr681       O691   2.345   1_566  S
Zr681       O689   2.328   1_665  S
O682       Zr708   2.334       .  S
O682       Zr711   2.334   1_455  S
O683       Zr709   2.336   1_556  S
O683       Zr710   2.326       .  S
C684       C1633   1.473       .  S
C685       C1561   1.459       .  S
C686       C1456   1.469       .  S
C687       C1381   1.480       .  S
H688        O689   0.966   1_565  S
O689       Zr708   2.334   1_556  S
O689       Zr710   2.332   1_455  S
H690        O691   0.965   1_565  S
O691       Zr709   2.342       .  S
O691       Zr711   2.338       .  S
O692       Zr708   2.426       .  S
O692        C715   1.290       .  A
O693       Zr709   2.429       .  S
O693        C716   1.291       .  A
O694       Zr710   2.412   1_455  S
O694        C717   1.287       .  A
O695       Zr711   2.448   1_455  S
O695        C718   1.294       .  A
O696       Zr711   2.438       .  S
O696        C719   1.293       .  A
O697       Zr710   2.430       .  S
O697        C720   1.290       .  A
O698       Zr712   2.480   1_556  S
O698        C721   1.299       .  A
O699       Zr712   2.444       .  S
O699        C722   1.294       .  A
O700       Zr710   2.409       .  S
O700        C721   1.287       .  A
O701       Zr711   2.437       .  S
O701        C722   1.293       .  A
O702       Zr708   2.427   1_556  S
O702        C717   1.290       .  A
O703       Zr709   2.446   1_556  S
O703        C720   1.293       .  A
O704       Zr709   2.445       .  S
O704        C719   1.293       .  A
O705       Zr708   2.420       .  S
O705        C718   1.288       .  A
O706       Zr712   2.472   1_455  S
O706        C715   1.298       .  A
O707       Zr712   2.453       .  S
O707        C716   1.295       .  A
Zr708       O714   2.333   1_554  S
Zr708       O726   2.335       .  S
Zr709       O713   2.339       .  S
Zr709       O724   2.350   1_554  S
Zr710       O714   2.337   1_655  S
Zr710       O724   2.336       .  S
Zr711       O713   2.348       .  S
Zr711       O726   2.355   1_655  S
Zr712       O713   2.358       .  S
Zr712       O714   2.334   1_654  S
Zr712       O726   2.358   1_655  S
Zr712       O724   2.354   1_554  S
C715       C1072   1.483       .  S
C716       C1597   1.473       .  S
C717       C1420   1.458       .  S
C718       C1201   1.467       .  S
C719       C1348   1.491       .  S
C720       C1528   1.476       .  S
C721       C1489   1.482       .  S
C722       C1288   1.472       .  S
H723        O724   0.966       .  S
H725        O726   0.967       .  S
O727       Zr763   2.442       .  S
O727        C738   1.293       .  A
O728       Zr762   2.474       .  S
O728        C739   1.298       .  A
O729       Zr735   2.415       .  S
O729        C740   1.287       .  A
O730       Zr735   2.429       .  S
O730        C741   1.290       .  A
O731       Zr765   2.439       .  S
O731        C741   1.292       .  A
O732       Zr764   2.433       .  S
O732        C740   1.290       .  A
O733       Zr735   2.423       .  S
O733        C739   1.289       .  A
O734       Zr735   2.431       .  S
O734        C738   1.291       .  A
Zr735       O736   2.342       .  S
Zr735       O737   2.328       .  S
Zr735       O745   2.327       .  S
Zr735       O743   2.340       .  S
O736       Zr762   2.352       .  S
O736       Zr765   2.347       .  S
O737       Zr763   2.329       .  S
O737       Zr764   2.332       .  S
C738        C916   1.481       .  S
C739        C892   1.481       .  S
C740        C904   1.455       .  S
C741        C880   1.469       .  S
H742        O743   0.965       .  S
O743       Zr762   2.344       .  S
O743       Zr764   2.341       .  S
H744        O745   0.966       .  S
O745       Zr763   2.329       .  S
O745       Zr765   2.335       .  S
O746       Zr762   2.454       .  S
O746        C769   1.296       .  A
O747       Zr763   2.424       .  S
O747        C770   1.289       .  A
O748       Zr764   2.428       .  S
O748        C771   1.290       .  A
O749       Zr765   2.431       .  S
O749        C772   1.290       .  A
O750       Zr765   2.434       .  S
O750        C773   1.291       .  A
O751       Zr764   2.433       .  S
O751        C774   1.291       .  A
O752       Zr766   2.448       .  S
O752        C775   1.294       .  A
O753       Zr766   2.449       .  S
O753        C776   1.294       .  A
O754       Zr764   2.431       .  S
O754        C775   1.291       .  A
O755       Zr765   2.434       .  S
O755        C776   1.291       .  A
O756       Zr762   2.471       .  S
O756        C771   1.298       .  A
O757       Zr763   2.431       .  S
O757        C774   1.291       .  A
O758       Zr763   2.426       .  S
O758        C773   1.291       .  A
O759       Zr762   2.463       .  S
O759        C772   1.296       .  A
O760       Zr766   2.446       .  S
O760        C769   1.295       .  A
O761       Zr766   2.463       .  S
O761        C770   1.297       .  A
Zr762       O768   2.356       .  S
Zr762       O780   2.357       .  S
Zr763       O767   2.342       .  S
Zr763       O778   2.341       .  S
Zr764       O768   2.339       .  S
Zr764       O778   2.337       .  S
Zr765       O767   2.340       .  S
Zr765       O780   2.340       .  S
Zr766       O767   2.340       .  S
Zr766       O768   2.350       .  S
Zr766       O780   2.348       .  S
Zr766       O778   2.341       .  S
C769        C865   1.484       .  S
C770        C844   1.476       .  S
C771        C784   1.481       .  S
C772        C808   1.474       .  S
C773        C820   1.475       .  S
C774        C796   1.477       .  S
C775        C832   1.483       .  S
C776        C856   1.484       .  S
H777        O778   0.966       .  S
H779        O780   0.967       .  S
C781        C782   1.408       .  A
C781        C786   1.411       .  A
C782        C783   1.406       .  A
C782        H787   1.083       .  S
C783        C784   1.408       .  A
C783        O788   1.371       .  S
C784        C785   1.404       .  A
C785        C786   1.403       .  A
C785        H789   1.084       .  S
C786        O790   1.372       .  S
O788        H792   0.992       .  S
O790        H791   0.992       .  S
C793        C794   1.401       .  A
C793        C798   1.408       .  A
C794        C795   1.398       .  A
C794        H799   1.084       .  S
C795        C796   1.412       .  A
C795        O800   1.371       .  S
C796        C797   1.404       .  A
C797        C798   1.399       .  A
C797        H801   1.084       .  S
C798        O802   1.373       .  S
O800        H804   0.991       .  S
O802        H803   0.992       .  S
C805        C806   1.410       .  A
C805        C810   1.414       .  A
C806        C807   1.404       .  A
C806        H811   1.083       .  S
C807        C808   1.404       .  A
C807        O812   1.372       .  S
C808        C809   1.402       .  A
C809        C810   1.402       .  A
C809        H813   1.084       .  S
C810        O814   1.372       .  S
O812        H816   0.992       .  S
O814        H815   0.992       .  S
C817        C818   1.404       .  A
C817        C822   1.405       .  A
C818        C819   1.396       .  A
C818        H823   1.084       .  S
C819        C820   1.409       .  A
C819        O824   1.372       .  S
C820        C821   1.406       .  A
C821        C822   1.397       .  A
C821        H825   1.083       .  S
C822        O826   1.372       .  S
O824        H828   0.992       .  S
O826        H827   0.992       .  S
C829        C830   1.403       .  A
C829        C834   1.406       .  A
C830        C831   1.402       .  A
C830        H835   1.084       .  S
C831        C832   1.411       .  A
C831        O836   1.371       .  S
C832        C833   1.408       .  A
C833        C834   1.399       .  A
C833        H837   1.084       .  S
C834        O838   1.372       .  S
O836        H840   0.992       .  S
O838        H839   0.992       .  S
C841        C842   1.407       .  A
C841        C846   1.411       .  A
C842        C843   1.405       .  A
C842        H847   1.083       .  S
C843        C844   1.407       .  A
C843        O848   1.372       .  S
C844        C845   1.403       .  A
C845        C846   1.399       .  A
C845        H849   1.084       .  S
C846        O850   1.372       .  S
O848        H852   0.992       .  S
O850        H851   0.992       .  S
C853        C854   1.403       .  A
C853        C858   1.409       .  A
C854        C855   1.399       .  A
C854        H859   1.084       .  S
C855        C856   1.410       .  A
C855        O860   1.371       .  S
C856        C857   1.408       .  A
C857        C858   1.404       .  A
C857        H861   1.083       .  S
C858        O862   1.372       .  S
O860        H864   0.992       .  S
O862        H863   0.992       .  S
C865        C866   1.405       .  A
C865        C870   1.410       .  A
C866        C867   1.402       .  A
C866        H871   1.082       .  S
C867        C868   1.407       .  A
C867        O872   1.371       .  S
C868        C869   1.406       .  A
C869        C870   1.404       .  A
C869        H873   1.084       .  S
C870        O874   1.372       .  S
O872        H876   0.992       .  S
O874        H875   0.992       .  S
C877        C878   1.406       .  A
C877        C882   1.410       .  A
C878        C879   1.398       .  A
C878        H883   1.084       .  S
C879        C880   1.404       .  A
C879        O884   1.372       .  S
C880        C881   1.403       .  A
C881        C882   1.399       .  A
C881        H885   1.084       .  S
C882        O886   1.371       .  S
O884        H888   0.992       .  S
O886        H887   0.992       .  S
C889        C890   1.405       .  A
C889        C894   1.415       .  A
C890        C891   1.400       .  A
C890        H895   1.083       .  S
C891        C892   1.411       .  A
C891        O896   1.373       .  S
C892        C893   1.403       .  A
C893        C894   1.406       .  A
C893        H897   1.084       .  S
C894        O898   1.371       .  S
O896        H900   0.992       .  S
O898        H899   0.992       .  S
C901        C902   1.404       .  A
C901        C906   1.411       .  A
C902        C903   1.393       .  A
C902        H907   1.084       .  S
C903        C904   1.403       .  A
C903        O908   1.371       .  S
C904        C905   1.398       .  A
C905        C906   1.397       .  A
C905        H909   1.084       .  S
C906        O910   1.372       .  S
O908        H912   0.991       .  S
O910        H911   0.992       .  S
C913        C914   1.404       .  A
C913        C918   1.407       .  A
C914        C915   1.400       .  A
C914        H919   1.084       .  S
C915        C916   1.409       .  A
C915        O920   1.372       .  S
C916        C917   1.406       .  A
C917        C918   1.399       .  A
C917        H921   1.082       .  S
C918        O922   1.372       .  S
O920        H924   0.992       .  S
O922        H923   0.992       .  S
C925        C926   1.406       .  A
C925        C930   1.407       .  A
C926        C927   1.410       .  A
C926        H931   1.083       .  S
C927        C928   1.411       .  A
C927        O932   1.371       .  S
C928        C929   1.407       .  A
C929        C930   1.400       .  A
C929        H933   1.084       .  S
C930        O934   1.373       .  S
O932        H936   0.992       .  S
O934        H935   0.992       .  S
C937        C938   1.400       .  A
C937        C942   1.412       .  A
C938        C939   1.393       .  A
C938        H943   1.084       .  S
C939        C940   1.414       .  A
C939        O944   1.371       .  S
C940        C941   1.407       .  A
C941        C942   1.409       .  A
C941        H945   1.083       .  S
C942        O946   1.371       .  S
O944        H948   0.992       .  S
O946        H947   0.992       .  S
C949        C950   1.400       .  A
C949        C954   1.412       .  A
C950        C951   1.394       .  A
C950        H955   1.083       .  S
C951        C952   1.414       .  A
C951        O956   1.373       .  S
C952        C953   1.406       .  A
C953        C954   1.406       .  A
C953        H957   1.083       .  S
C954        O958   1.371       .  S
O956        H960   0.992       .  S
O958        H959   0.992       .  S
C961        C962   1.406       .  A
C961        C966   1.411       .  A
C962        C963   1.408       .  A
C962        H967   1.083       .  S
C963        C964   1.412       .  A
C963        O968   1.371       .  S
C964        C965   1.405       .  A
C965        C966   1.396       .  A
C965        H969   1.084       .  S
C966        O970   1.372       .  S
O968        H972   0.992       .  S
O970        H971   0.992       .  S
C973        C974   1.408       .  A
C973        C978   1.409       .  A
C974        C975   1.410       .  A
C974        H979   1.083       .  S
C975        C976   1.412       .  A
C975        O980   1.371       .  S
C976        C977   1.404       .  A
C977        C978   1.396       .  A
C977        H981   1.084       .  S
C978        O982   1.372       .  S
O980        H984   0.992       .  S
O982        H983   0.992       .  S
C985        C986   1.401       .  A
C985        C990   1.414       .  A
C986        C987   1.390       .  A
C986        H991   1.084       .  S
C987        C988   1.411       .  A
C987        O992   1.373       .  S
C988        C989   1.406       .  A
C989        C990   1.411       .  A
C989        H993   1.083       .  S
C990        O994   1.371       .  S
O992        H996   0.992       .  S
O994        H995   0.992       .  S
C997        C998   1.400       .  A
C997       C1002   1.409       .  A
C998        C999   1.396       .  A
C998       H1003   1.083       .  S
C999       C1000   1.413       .  A
C999       O1004   1.373       .  S
C1000      C1001   1.408       .  A
C1001      C1002   1.407       .  A
C1001      H1005   1.083       .  S
C1002      O1006   1.371       .  S
O1004      H1008   0.992       .  S
O1006      H1007   0.992       .  S
C1009      C1010   1.407       .  A
C1009      C1014   1.413       .  A
C1010      C1011   1.406       .  A
C1010      H1015   1.083       .  S
C1011      C1012   1.408       .  A
C1011      O1016   1.371       .  S
C1012      C1013   1.403       .  A
C1013      C1014   1.401       .  A
C1013      H1017   1.084       .  S
C1014      O1018   1.373       .  S
O1016      H1020   0.991       .  S
O1018      H1019   0.992       .  S
C1021      C1022   1.406       .  A
C1021      C1026   1.409       .  A
C1022      C1023   1.402       .  A
C1022      H1027   1.083       .  S
C1023      C1024   1.411       .  A
C1023      O1028   1.371       .  S
C1024      C1025   1.402       .  A
C1025      C1026   1.385       .  A
C1025      H1029   1.084       .  S
C1026      O1030   1.373       .  S
O1028      H1032   0.992       .  S
O1030      H1031   0.992       .  S
C1033      C1034   1.406       .  A
C1033      C1038   1.410       .  A
C1034      C1035   1.407       .  A
C1034      H1039   1.084       .  S
C1035      C1036   1.412       .  A
C1035      O1040   1.371       .  S
C1036      C1037   1.406       .  A
C1037      C1038   1.398       .  A
C1037      H1041   1.084       .  S
C1038      O1042   1.373       .  S
O1040      H1044   0.992       .  S
O1042      H1043   0.992       .  S
C1045      C1046   1.401       .  A
C1045      C1050   1.407       .  A
C1046      C1047   1.386       .  A
C1046      H1051   1.084       .  S
C1047      C1048   1.406       .  A
C1047      O1052   1.372       .  S
C1048      C1049   1.404       .  A
C1049      C1050   1.399       .  A
C1049      H1053   1.084       .  S
C1050      O1054   1.372       .  S
O1052      H1056   0.992       .  S
O1054      H1055   0.992       .  S
C1057      C1058   1.403       .  A
C1057      C1062   1.410       .  A
C1058      C1059   1.398       .  A
C1058      H1063   1.084       .  S
C1059      C1060   1.410       .  A
C1059      O1064   1.373       .  S
C1060      C1061   1.407       .  A
C1061      C1062   1.408       .  A
C1061      H1065   1.083       .  S
C1062      O1066   1.371       .  S
O1064      H1068   0.992       .  S
O1066      H1067   0.991       .  S
C1069      C1070   1.410   1_554  A
C1069      C1074   1.414       .  A
C1070      C1071   1.408       .  A
C1070      H1075   1.083       .  S
C1071      C1072   1.408   1_556  A
C1071      O1076   1.372       .  S
C1072      C1073   1.403       .  A
C1073      C1074   1.400       .  A
C1073      H1077   1.084       .  S
C1074      O1078   1.372       .  S
O1076      H1080   0.992       .  S
O1078      H1079   0.992       .  S
C1081      C1082   1.399       .  A
C1081      C1086   1.412       .  A
C1082      C1083   1.397       .  A
C1082      H1087   1.084       .  S
C1083      C1084   1.414       .  A
C1083      O1088   1.374       .  S
C1084      C1085   1.405       .  A
C1085      C1086   1.407       .  A
C1085      H1089   1.083       .  S
C1086      O1090   1.371       .  S
O1088      H1092   0.992       .  S
O1090      H1091   0.992       .  S
C1093      C1094   1.400       .  A
C1093      C1098   1.416       .  A
C1094      C1095   1.396       .  A
C1094      H1099   1.084       .  S
C1095      C1096   1.422       .  A
C1095      O1100   1.372       .  S
C1096      C1097   1.405       .  A
C1097      C1098   1.407       .  A
C1097      H1101   1.083       .  S
C1098      O1102   1.371       .  S
O1100      H1104   0.992       .  S
O1102      H1103   0.992       .  S
C1105      C1106   1.406       .  A
C1105      C1110   1.407       .  A
C1106      C1107   1.408       .  A
C1106      H1111   1.083       .  S
C1107      C1108   1.411       .  A
C1107      O1112   1.371       .  S
C1108      C1109   1.405       .  A
C1109      C1110   1.396       .  A
C1109      H1113   1.084       .  S
C1110      O1114   1.373       .  S
O1112      H1116   0.991       .  S
O1114      H1115   0.992       .  S
C1117      C1118   1.406       .  A
C1117      C1122   1.408       .  A
C1118      C1119   1.409       .  A
C1118      H1123   1.084       .  S
C1119      C1120   1.413       .  A
C1119      O1124   1.371       .  S
C1120      C1121   1.405       .  A
C1121      C1122   1.401       .  A
C1121      H1125   1.084       .  S
C1122      O1126   1.373       .  S
O1124      H1128   0.992       .  S
O1126      H1127   0.992       .  S
C1129      C1130   1.406       .  A
C1129      C1134   1.410       .  A
C1130      C1131   1.410       .  A
C1130      H1135   1.083       .  S
C1131      C1132   1.413       .  A
C1131      O1136   1.371       .  S
C1132      C1133   1.404       .  A
C1133      C1134   1.396       .  A
C1133      H1137   1.084       .  S
C1134      O1138   1.372       .  S
O1136      H1140   0.992       .  S
O1138      H1139   0.992       .  S
C1141      C1142   1.409       .  A
C1141      C1146   1.410       .  A
C1142      C1143   1.409       .  A
C1142      H1147   1.083       .  S
C1143      C1144   1.412       .  A
C1143      O1148   1.371       .  S
C1144      C1145   1.408       .  A
C1145      C1146   1.401       .  A
C1145      H1149   1.083       .  S
C1146      O1150   1.373       .  S
O1148      H1152   0.992       .  S
O1150      H1151   0.992       .  S
C1153      C1154   1.401       .  A
C1153      C1158   1.409       .  A
C1154      C1155   1.398       .  A
C1154      H1159   1.083       .  S
C1155      C1156   1.409       .  A
C1155      O1160   1.373       .  S
C1156      C1157   1.407       .  A
C1157      C1158   1.408       .  A
C1157      H1161   1.083       .  S
C1158      O1162   1.371       .  S
O1160      H1164   0.992       .  S
O1162      H1163   0.991       .  S
C1165      C1166   1.398       .  A
C1165      C1170   1.413       .  A
C1166      C1167   1.389       .  A
C1166      H1171   1.083       .  S
C1167      C1168   1.416       .  A
C1167      O1172   1.372       .  S
C1168      C1169   1.407       .  A
C1169      C1170   1.406       .  A
C1169      H1173   1.083       .  S
C1170      O1174   1.372       .  S
O1172      H1176   0.992       .  S
O1174      H1175   0.992       .  S
C1177      C1178   1.409       .  A
C1177      C1182   1.407       .  A
C1178      C1179   1.414       .  A
C1178      H1183   1.083       .  S
C1179      C1180   1.413       .  A
C1179      O1184   1.370       .  S
C1180      C1181   1.407       .  A
C1181      C1182   1.397       .  A
C1181      H1185   1.084       .  S
C1182      O1186   1.373       .  S
O1184      H1188   0.992       .  S
O1186      H1187   0.992       .  S
C1189      C1190   1.407       .  A
C1189      C1194   1.408       .  A
C1190      C1191   1.411       .  A
C1190      H1195   1.083       .  S
C1191      C1192   1.413       .  A
C1191      O1196   1.371       .  S
C1192      C1193   1.405       .  A
C1193      C1194   1.395       .  A
C1193      H1197   1.084       .  S
C1194      O1198   1.372       .  S
O1196      H1200   0.992       .  S
O1198      H1199   0.992       .  S
C1201      C1202   1.403       .  A
C1201      C1206   1.402       .  A
C1202      C1203   1.400       .  A
C1202      H1207   1.083   1_545  S
C1203      C1204   1.410       .  A
C1203      O1208   1.372   1_545  S
C1204      C1205   1.410       .  A
C1205      C1206   1.397       .  A
C1205      H1209   1.082       .  S
C1206      O1210   1.372       .  S
O1208      H1212   0.992       .  S
O1210      H1211   0.992       .  S
C1213      C1214   1.406       .  A
C1213      C1218   1.408       .  A
C1214      C1215   1.409       .  A
C1214      H1219   1.083       .  S
C1215      C1216   1.413       .  A
C1215      O1220   1.371       .  S
C1216      C1217   1.406       .  A
C1217      C1218   1.397       .  A
C1217      H1221   1.084       .  S
C1218      O1222   1.373       .  S
O1220      H1224   0.992       .  S
O1222      H1223   0.992       .  S
C1225      C1226   1.407       .  A
C1225      C1230   1.408       .  A
C1226      C1227   1.413       .  A
C1226      H1231   1.083       .  S
C1227      C1228   1.413       .  A
C1227      O1232   1.371       .  S
C1228      C1229   1.402       .  A
C1229      C1230   1.396       .  A
C1229      H1233   1.084       .  S
C1230      O1234   1.371       .  S
O1232      H1236   0.992       .  S
O1234      H1235   0.991       .  S
C1237      C1238   1.407       .  A
C1237      C1242   1.410       .  A
C1238      C1239   1.412       .  A
C1238      H1243   1.083       .  S
C1239      C1240   1.415       .  A
C1239      O1244   1.371       .  S
C1240      C1241   1.405       .  A
C1241      C1242   1.392       .  A
C1241      H1245   1.083       .  S
C1242      O1246   1.373       .  S
O1244      H1248   0.992       .  S
O1246      H1247   0.992       .  S
C1249      C1250   1.414       .  A
C1249      C1254   1.410       .  A
C1250      C1251   1.413       .  A
C1250      H1255   1.083       .  S
C1251      C1252   1.410       .  A
C1251      O1256   1.371       .  S
C1252      C1253   1.408       .  A
C1253      C1254   1.392       .  A
C1253      H1257   1.083       .  S
C1254      O1258   1.371       .  S
O1256      H1260   0.992       .  S
O1258      H1259   0.991       .  S
C1261      C1262   1.406       .  A
C1261      C1266   1.410       .  A
C1262      C1263   1.407       .  A
C1262      H1267   1.083       .  S
C1263      C1264   1.413       .  A
C1263      O1268   1.371       .  S
C1264      C1265   1.404       .  A
C1265      C1266   1.397       .  A
C1265      H1269   1.084       .  S
C1266      O1270   1.373       .  S
O1268      H1272   0.992       .  S
O1270      H1271   0.992       .  S
C1273      C1274   1.399       .  A
C1273      C1278   1.413       .  A
C1274      C1275   1.391       .  A
C1274      H1279   1.084       .  S
C1275      C1276   1.416       .  A
C1275      O1280   1.373       .  S
C1276      C1277   1.406       .  A
C1277      C1278   1.406       .  A
C1277      H1281   1.083       .  S
C1278      O1282   1.371       .  S
O1280      H1284   0.992       .  S
O1282      H1283   0.992       .  S
C1285      C1286   1.404       .  A
C1285      C1290   1.410       .  A
C1286      C1287   1.399       .  A
C1286      H1291   1.084       .  S
C1287      C1288   1.408       .  A
C1287      O1292   1.372       .  S
C1288      C1289   1.402       .  A
C1289      C1290   1.400       .  A
C1289      H1293   1.084   1_655  S
C1290      O1294   1.371   1_655  S
O1292      H1296   0.992       .  S
O1294      H1295   0.992       .  S
C1297      C1298   1.408       .  A
C1297      C1302   1.411       .  A
C1298      C1299   1.409       .  A
C1298      H1303   1.083       .  S
C1299      C1300   1.409       .  A
C1299      O1304   1.371       .  S
C1300      C1301   1.401       .  A
C1301      C1302   1.392       .  A
C1301      H1305   1.083       .  S
C1302      O1306   1.372       .  S
O1304      H1308   0.992       .  S
O1306      H1307   0.991       .  S
C1309      C1310   1.405       .  A
C1309      C1314   1.411       .  A
C1310      C1311   1.406       .  A
C1310      H1315   1.083       .  S
C1311      C1312   1.410       .  A
C1311      O1316   1.371       .  S
C1312      C1313   1.402       .  A
C1313      C1314   1.395       .  A
C1313      H1317   1.084       .  S
C1314      O1318   1.373       .  S
O1316      H1320   0.992       .  S
O1318      H1319   0.992       .  S
C1321      C1322   1.408       .  A
C1321      C1326   1.414       .  A
C1322      C1323   1.393       .  A
C1322      H1327   1.083       .  S
C1323      C1324   1.407       .  A
C1323      O1328   1.374       .  S
C1324      C1325   1.409       .  A
C1325      C1326   1.413       .  A
C1325      H1329   1.083       .  S
C1326      O1330   1.371       .  S
O1328      H1332   0.992       .  S
O1330      H1331   0.992       .  S
C1333      C1334   1.408       .  A
C1333      C1338   1.411       .  A
C1334      C1335   1.397       .  A
C1334      H1339   1.084       .  S
C1335      C1336   1.406       .  A
C1335      O1340   1.372       .  S
C1336      C1337   1.408       .  A
C1337      C1338   1.410       .  A
C1337      H1341   1.083       .  S
C1338      O1342   1.371       .  S
O1340      H1344   0.992       .  S
O1342      H1343   0.992       .  S
C1345      C1346   1.399       .  A
C1345      C1350   1.404       .  A
C1346      C1347   1.399       .  A
C1346      H1351   1.084       .  S
C1347      C1348   1.416       .  A
C1347      O1352   1.371       .  S
C1348      C1349   1.410       .  A
C1349      C1350   1.401       .  A
C1349      H1353   1.083       .  S
C1350      O1354   1.372       .  S
O1352      H1356   0.992       .  S
O1354      H1355   0.992       .  S
C1357      C1358   1.408       .  A
C1357      C1362   1.412       .  A
C1358      C1359   1.409       .  A
C1358      H1363   1.083       .  S
C1359      C1360   1.410       .  A
C1359      O1364   1.371       .  S
C1360      C1361   1.403       .  A
C1361      C1362   1.396       .  A
C1361      H1365   1.084       .  S
C1362      O1366   1.373       .  S
O1364      H1368   0.992       .  S
O1366      H1367   0.992       .  S
C1369      C1370   1.409       .  A
C1369      C1374   1.411       .  A
C1370      C1371   1.410       .  A
C1370      H1375   1.083       .  S
C1371      C1372   1.409       .  A
C1371      O1376   1.371       .  S
C1372      C1373   1.404       .  A
C1373      C1374   1.395       .  A
C1373      H1377   1.084       .  S
C1374      O1378   1.372       .  S
O1376      H1380   0.992       .  S
O1378      H1379   0.992       .  S
C1381      C1382   1.404       .  A
C1381      C1386   1.409   1_655  A
C1382      C1383   1.406       .  A
C1382      H1387   1.084       .  S
C1383      C1384   1.414       .  A
C1383      O1388   1.371       .  S
C1384      C1385   1.405   1_655  A
C1385      C1386   1.400       .  A
C1385      H1389   1.083       .  S
C1386      O1390   1.372       .  S
O1388      H1392   0.992       .  S
O1390      H1391   0.992       .  S
C1393      C1394   1.407       .  A
C1393      C1398   1.411       .  A
C1394      C1395   1.405       .  A
C1394      H1399   1.083       .  S
C1395      C1396   1.412       .  A
C1395      O1400   1.371       .  S
C1396      C1397   1.405       .  A
C1397      C1398   1.390       .  A
C1397      H1401   1.083       .  S
C1398      O1402   1.373       .  S
O1400      H1404   0.992   1_565  S
O1402      H1403   0.992       .  S
C1405      C1406   1.403       .  A
C1405      C1410   1.411       .  A
C1406      C1407   1.401       .  A
C1406      H1411   1.083       .  S
C1407      C1408   1.410       .  A
C1407      O1412   1.371       .  S
C1408      C1409   1.399       .  A
C1409      C1410   1.389       .  A
C1409      H1413   1.084       .  S
C1410      O1414   1.374       .  S
O1412      H1416   0.992       .  S
O1414      H1415   0.992       .  S
C1417      C1418   1.405       .  A
C1417      C1422   1.407       .  A
C1418      C1419   1.394       .  A
C1418      H1423   1.083       .  S
C1419      C1420   1.403       .  A
C1419      O1424   1.373       .  S
C1420      C1421   1.401       .  A
C1421      C1422   1.393       .  A
C1421      H1425   1.083       .  S
C1422      O1426   1.372       .  S
O1424      H1428   0.992       .  S
O1426      H1427   0.992       .  S
C1429      C1430   1.405       .  A
C1429      C1434   1.414       .  A
C1430      C1431   1.404       .  A
C1430      H1435   1.083       .  S
C1431      C1432   1.413       .  A
C1431      O1436   1.371       .  S
C1432      C1433   1.402       .  A
C1433      C1434   1.390       .  A
C1433      H1437   1.084       .  S
C1434      O1438   1.372       .  S
O1436      H1440   0.992       .  S
O1438      H1439   0.992       .  S
C1441      C1442   1.411       .  A
C1441      C1446   1.412       .  A
C1442      C1443   1.406       .  A
C1442      H1447   1.083       .  S
C1443      C1444   1.406       .  A
C1443      O1448   1.371       .  S
C1444      C1445   1.400       .  A
C1445      C1446   1.394       .  A
C1445      H1449   1.084       .  S
C1446      O1450   1.372       .  S
O1448      H1452   0.992       .  S
O1450      H1451   0.992       .  S
C1453      C1454   1.407       .  A
C1453      C1458   1.411   1_655  A
C1454      C1455   1.394       .  A
C1454      H1459   1.083       .  S
C1455      C1456   1.401       .  A
C1455      O1460   1.370       .  S
C1456      C1457   1.403   1_655  A
C1457      C1458   1.403       .  A
C1457      H1461   1.083       .  S
C1458      O1462   1.371       .  S
O1460      H1464   0.992       .  S
O1462      H1463   0.992       .  S
C1465      C1466   1.398       .  A
C1465      C1470   1.413       .  A
C1466      C1467   1.393       .  A
C1466      H1471   1.084       .  S
C1467      C1468   1.411       .  A
C1467      O1472   1.372       .  S
C1468      C1469   1.406       .  A
C1469      C1470   1.411       .  A
C1469      H1473   1.083       .  S
C1470      O1474   1.371       .  S
O1472      H1476   0.992       .  S
O1474      H1475   0.992       .  S
C1477      C1478   1.405       .  A
C1477      C1482   1.409       .  A
C1478      C1479   1.404       .  A
C1478      H1483   1.084       .  S
C1479      C1480   1.408       .  A
C1479      O1484   1.372       .  S
C1480      C1481   1.403       .  A
C1481      C1482   1.400       .  A
C1481      H1485   1.084       .  S
C1482      O1486   1.372       .  S
O1484      H1488   0.992       .  S
O1486      H1487   0.992       .  S
C1489      C1490   1.403       .  A
C1489      C1494   1.411   1_655  A
C1490      C1491   1.410       .  A
C1490      H1495   1.083       .  S
C1491      C1492   1.415       .  A
C1491      O1496   1.371       .  S
C1492      C1493   1.403   1_655  A
C1493      C1494   1.398       .  A
C1493      H1497   1.084       .  S
C1494      O1498   1.373       .  S
O1496      H1500   0.992       .  S
O1498      H1499   0.992       .  S
C1501      C1502   1.406       .  A
C1501      C1506   1.412       .  A
C1502      C1503   1.398       .  A
C1502      H1507   1.084       .  S
C1503      C1504   1.409       .  A
C1503      O1508   1.374       .  S
C1504      C1505   1.404       .  A
C1505      C1506   1.406       .  A
C1505      H1509   1.084       .  S
C1506      O1510   1.371       .  S
O1508      H1512   0.992       .  S
O1510      H1511   0.992       .  S
C1513      C1514   1.405       .  A
C1513      C1518   1.411       .  A
C1514      C1515   1.393       .  A
C1514      H1519   1.084       .  S
C1515      C1516   1.405       .  A
C1515      O1520   1.372       .  S
C1516      C1517   1.407       .  A
C1517      C1518   1.407       .  A
C1517      H1521   1.084       .  S
C1518      O1522   1.371       .  S
O1520      H1524   0.992       .  S
O1522      H1523   0.992       .  S
C1525      C1526   1.404       .  A
C1525      C1530   1.412       .  A
C1526      C1527   1.400       .  A
C1526      H1531   1.084   1_545  S
C1527      C1528   1.410       .  A
C1527      O1532   1.372   1_545  S
C1528      C1529   1.402       .  A
C1529      C1530   1.400       .  A
C1529      H1533   1.082       .  S
C1530      O1534   1.372       .  S
O1532      H1536   0.992   1_565  S
O1534      H1535   0.992       .  S
C1537      C1538   1.400       .  A
C1537      C1542   1.410       .  A
C1538      C1539   1.391       .  A
C1538      H1543   1.084       .  S
C1539      C1540   1.410       .  A
C1539      O1544   1.372       .  S
C1540      C1541   1.405       .  A
C1541      C1542   1.405       .  A
C1541      H1545   1.083       .  S
C1542      O1546   1.372       .  S
O1544      H1548   0.992       .  S
O1546      H1547   0.992       .  S
C1549      C1550   1.407       .  A
C1549      C1554   1.413       .  A
C1550      C1551   1.403       .  A
C1550      H1555   1.083       .  S
C1551      C1552   1.406       .  A
C1551      O1556   1.372       .  S
C1552      C1553   1.401       .  A
C1553      C1554   1.396       .  A
C1553      H1557   1.084       .  S
C1554      O1558   1.373       .  S
O1556      H1560   0.992       .  S
O1558      H1559   0.992       .  S
C1561      C1562   1.397   1_556  A
C1561      C1566   1.402       .  A
C1562      C1563   1.397       .  A
C1562      H1567   1.084       .  S
C1563      C1564   1.415   1_554  A
C1563      O1568   1.372       .  S
C1564      C1565   1.408       .  A
C1565      C1566   1.399       .  A
C1565      H1569   1.083       .  S
C1566      O1570   1.372       .  S
O1568      H1572   0.992       .  S
O1570      H1571   0.992       .  S
C1573      C1574   1.401       .  A
C1573      C1578   1.411       .  A
C1574      C1575   1.396       .  A
C1574      H1579   1.084       .  S
C1575      C1576   1.413       .  A
C1575      O1580   1.372       .  S
C1576      C1577   1.409       .  A
C1577      C1578   1.413       .  A
C1577      H1581   1.083       .  S
C1578      O1582   1.371       .  S
O1580      H1584   0.992       .  S
O1582      H1583   0.992       .  S
C1585      C1586   1.407       .  A
C1585      C1590   1.414       .  A
C1586      C1587   1.409       .  A
C1586      H1591   1.083       .  S
C1587      C1588   1.409       .  A
C1587      O1592   1.371       .  S
C1588      C1589   1.402       .  A
C1589      C1590   1.397       .  A
C1589      H1593   1.083       .  S
C1590      O1594   1.372       .  S
O1592      H1596   0.992       .  S
O1594      H1595   0.992       .  S
C1597      C1598   1.402       .  A
C1597      C1602   1.406   1_554  A
C1598      C1599   1.404       .  A
C1598      H1603   1.084       .  S
C1599      C1600   1.415       .  A
C1599      O1604   1.371       .  S
C1600      C1601   1.406   1_554  A
C1601      C1602   1.397       .  A
C1601      H1605   1.083       .  S
C1602      O1606   1.372       .  S
O1604      H1608   0.992       .  S
O1606      H1607   0.992       .  S
C1609      C1610   1.404       .  A
C1609      C1614   1.415       .  A
C1610      C1611   1.392       .  A
C1610      H1615   1.083       .  S
C1611      C1612   1.412       .  A
C1611      O1616   1.373       .  S
C1612      C1613   1.404       .  A
C1613      C1614   1.406       .  A
C1613      H1617   1.083       .  S
C1614      O1618   1.371       .  S
O1616      H1620   0.992       .  S
O1618      H1619   0.992       .  S
C1621      C1622   1.405       .  A
C1621      C1626   1.412       .  A
C1622      C1623   1.405       .  A
C1622      H1627   1.083       .  S
C1623      C1624   1.409       .  A
C1623      O1628   1.371       .  S
C1624      C1625   1.400       .  A
C1625      C1626   1.396       .  A
C1625      H1629   1.084       .  S
C1626      O1630   1.373       .  S
O1628      H1632   0.991       .  S
O1630      H1631   0.992       .  S
C1633      C1634   1.403       .  A
C1633      C1638   1.408   1_556  A
C1634      C1635   1.393       .  A
C1634      H1639   1.079       .  S
C1635      C1636   1.405       .  A
C1635      O1640   1.372       .  S
C1636      C1637   1.404   1_556  A
C1637      C1638   1.399       .  A
C1637      H1641   1.084       .  S
C1638      O1642   1.371       .  S
O1640      H1644   0.992       .  S
O1642      H1643   0.992       .  S
