geometry optimzed in LAMMPS
_audit_creation_date              2020-12-01 
_audit_creation_method            'lammps2cif' 
_symmetry_space_group_name_H-M    'P1' 
_symmetry_Int_Tables_number       1 
_symmetry_cell_setting            triclinic 
loop_ 
_symmetry_equiv_pos_as_xyz 
  x,y,z 
_cell_length_a                    43.21711621 
_cell_length_b                    43.26179540471301 
_cell_length_c                    59.46067531457182 
_cell_angle_alpha                 89.8173479974931 
_cell_angle_beta                  90.25121233771083 
_cell_angle_gamma                 119.97907571131257 
loop_ 
_atom_site_label 
_atom_site_type_symbol 
_atom_site_fract_x 
_atom_site_fract_y 
_atom_site_fract_z 
_atom_site_charge 
O1          O  0.41922024  0.24403160  0.07659372    -0.75600
O2          O  0.33009146  0.24318501  0.08140446    -0.75600
O3          O  0.38225046  0.26448174  0.04989731    -0.75700
O4          O  0.36736326  0.22111137  0.10764450    -0.75700
O5          O  0.39486059  0.27466824  0.12390157    -0.75600
O6          O  0.41123584  0.31892129  0.06505482    -0.75600
O7          O  0.35907212  0.29751614  0.09660933    -0.75600
O8          O  0.44678982  0.29791656  0.09250621    -0.75700
Ni9        Ni  0.37352690  0.24129137  0.07834635     1.25400
Ni10       Ni  0.40379404  0.29915082  0.09515740     1.25400
C11         C  0.44773726  0.27151999  0.08372795     0.86600
C12         C  0.33020892  0.27075505  0.08947798     0.86500
C13         C  0.40032249  0.29839020  0.04777739     0.86600
C14         C  0.37982981  0.24043799  0.12522284     0.86700
O15         O  0.32956046  0.24611061  0.92768009    -0.75600
O16         O  0.41584172  0.24213681  0.91952622    -0.75600
O17         O  0.38888485  0.26499810  0.95238668    -0.75700
O18         O  0.35486297  0.22165148  0.89520178    -0.75700
O19         O  0.38172510  0.27505943  0.87864381    -0.75600
O20         O  0.41351481  0.31938672  0.93714888    -0.75600
O21         O  0.44156484  0.29664781  0.90453763    -0.75600
O22         O  0.35553096  0.29948641  0.91107413    -0.75700
Ni23       Ni  0.37150619  0.24181717  0.92422474     1.25400
Ni24       Ni  0.39914853  0.29954872  0.90720127     1.25400
C25         C  0.32854024  0.27368933  0.92065547     0.86600
C26         C  0.44332375  0.26941668  0.91116969     0.86500
C27         C  0.40552635  0.29892354  0.95442501     0.86600
C28         C  0.36163233  0.24091788  0.87758016     0.86700
O29         O  0.11250276  0.30680497  0.07888161    -0.75600
O30         O  0.20123155  0.30692354  0.08326890    -0.75600
O31         O  0.14917614  0.28742484  0.05169809    -0.75700
O32         O  0.16410469  0.32791267  0.11015776    -0.75700
O33         O  0.13592844  0.27358051  0.12543083    -0.75600
O34         O  0.12020699  0.23222551  0.06583478    -0.75600
O35         O  0.17211829  0.25200651  0.09769364    -0.75600
O36         O  0.08439561  0.25196464  0.09355735    -0.75700
Ni37       Ni  0.15799298  0.30919581  0.08051992     1.25400
Ni38       Ni  0.12737632  0.25051206  0.09626226     1.25400
C39         C  0.08377786  0.27890100  0.08524950     0.86600
C40         C  0.20100969  0.27895971  0.09080176     0.86500
C41         C  0.13090370  0.25365484  0.04896639     0.86600
C42         C  0.15104982  0.30773867  0.12734617     0.86700
O43         O  0.19697230  0.30724743  0.92657030    -0.75600
O44         O  0.10776370  0.30531151  0.91837816    -0.75600
O45         O  0.13822321  0.28740757  0.95199519    -0.75700
O46         O  0.16756660  0.32634403  0.89331568    -0.75700
O47         O  0.14254431  0.27164458  0.87876031    -0.75600
O48         O  0.11497422  0.23198519  0.93867460    -0.75600
O49         O  0.08329425  0.24969375  0.90531778    -0.75600
O50         O  0.17223373  0.25229957  0.91227114    -0.75700
Ni51       Ni  0.15335967  0.30849987  0.92303403     1.25400
Ni52       Ni  0.12725480  0.24944715  0.90815602     1.25400
C53         C  0.19901159  0.27978267  0.92077728     0.86600
C54         C  0.08058339  0.27673955  0.91099933     0.86500
C55         C  0.12282186  0.25370827  0.95519331     0.86600
C56         C  0.16104524  0.30577436  0.87642313     0.86700
O57         O  0.29142216  0.20411221  0.74440130    -0.75600
O58         O  0.29197681  0.11608993  0.75151523    -0.75600
O59         O  0.27141345  0.14566288  0.71881948    -0.75700
O60         O  0.31338756  0.17606668  0.77676995    -0.75700
O61         O  0.25941969  0.15048788  0.79244117    -0.75600
O62         O  0.21658662  0.12113572  0.73333140    -0.75600
O63         O  0.23715357  0.09091855  0.76596511    -0.75600
O64         O  0.23716613  0.17856168  0.75977495    -0.75700
Ni65       Ni  0.29395552  0.16120233  0.74738528     1.25400
Ni66       Ni  0.23565497  0.13420459  0.76352472     1.25400
C67         C  0.26393710  0.20559744  0.75092600     0.86600
C68         C  0.26405655  0.08865799  0.75929605     0.86500
C69         C  0.23751592  0.12957253  0.71633484     0.86600
C70         C  0.29363541  0.16986692  0.79404296     0.86700
O71         O  0.29422822  0.11879851  0.59333746    -0.75600
O72         O  0.29411859  0.20758797  0.59033042    -0.75600
O73         O  0.27332354  0.15418641  0.62092253    -0.75700
O74         O  0.31661150  0.17185014  0.56311366    -0.75700
O75         O  0.26290644  0.14486530  0.54679134    -0.75600
O76         O  0.21882038  0.12553315  0.60560734    -0.75600
O77         O  0.23968751  0.17892918  0.57503606    -0.75600
O78         O  0.24023304  0.09154852  0.57732905    -0.75700
Ni79       Ni  0.29649943  0.16428955  0.59246541     1.25400
Ni80       Ni  0.23852607  0.13440903  0.57554406     1.25400
C81         C  0.26683221  0.09050197  0.58589853     0.86600
C82         C  0.26626387  0.20752816  0.58261282     0.86500
C83         C  0.23937224  0.13613124  0.62293208     0.86600
C84         C  0.29716061  0.16005435  0.54548582     0.86700
O85         O  0.23139805  0.33684632  0.74201415    -0.75600
O86         O  0.22944370  0.42426252  0.74867561    -0.75600
O87         O  0.25187679  0.39561280  0.71646704    -0.75700
O88         O  0.20781008  0.36388898  0.77379279    -0.75700
O89         O  0.26140162  0.39044797  0.79028496    -0.75600
O90         O  0.30616897  0.42005566  0.73200385    -0.75600
O91         O  0.28395716  0.44962328  0.76382602    -0.75600
O92         O  0.28499488  0.36254509  0.75853137    -0.75700
Ni93       Ni  0.22822344  0.37941670  0.74466850     1.25400
Ni94       Ni  0.28601791  0.40671292  0.76180590     1.25400
C95         C  0.25867387  0.33548731  0.74931889     0.86600
C96         C  0.25692162  0.45163900  0.75698906     0.86500
C97         C  0.28588419  0.41174000  0.71462102     0.86600
C98         C  0.22720920  0.37085778  0.79141580     0.86700
O99         O  0.23170132  0.42619049  0.59345836    -0.75600
O100        O  0.22921749  0.33632462  0.58916263    -0.75600
O101        O  0.25236521  0.38921341  0.62003739    -0.75700
O102        O  0.20689982  0.37372869  0.56286667    -0.75700
O103        O  0.26001464  0.40028744  0.54603824    -0.75600
O104        O  0.30635825  0.41718401  0.60420305    -0.75600
O105        O  0.28306795  0.36426075  0.57325325    -0.75600
O106        O  0.28518647  0.45288390  0.57698675    -0.75700
Ni107      Ni  0.22813396  0.38019225  0.59192589     1.25400
Ni108      Ni  0.28550646  0.40938985  0.57442526     1.25400
C109        C  0.25915903  0.45432914  0.58595230     0.86600
C110        C  0.25657713  0.33592364  0.58116037     0.86500
C111        C  0.28639528  0.40666962  0.62171058     0.86600
C112        C  0.22578132  0.38601196  0.54511599     0.86700
O113        O  0.10841582  0.33702579  0.26161301    -0.75600
O114        O  0.19783485  0.42499656  0.25479306    -0.75600
O115        O  0.14717170  0.39573590  0.28718887    -0.75700
O116        O  0.15926000  0.36475468  0.22964893    -0.75700
O117        O  0.13190686  0.39107381  0.21327793    -0.75600
O118        O  0.11702079  0.42008093  0.27195917    -0.75600
O119        O  0.16823243  0.45005077  0.23986162    -0.75600
O120        O  0.08054806  0.36287059  0.24526950    -0.75700
Ni121      Ni  0.15432047  0.37983372  0.25884460     1.25400
Ni122      Ni  0.12354957  0.40701326  0.24195004     1.25400
C123        C  0.07967657  0.33581684  0.25458104     0.86600
C124        C  0.19739068  0.45235500  0.24667209     0.86500
C125        C  0.12946151  0.41197681  0.28924036     0.86600
C126        C  0.14693070  0.37186146  0.21203269     0.86700
O127        O  0.19602599  0.43002653  0.41314403    -0.75600
O128        O  0.10742482  0.34112482  0.41676654    -0.75600
O129        O  0.13985651  0.39326366  0.38558939    -0.75700
O130        O  0.16555196  0.37780429  0.44392625    -0.75700
O131        O  0.13928346  0.40548911  0.45959859    -0.75600
O132        O  0.11357833  0.42204667  0.39980922    -0.75600
O133        O  0.08156395  0.37000569  0.43134490    -0.75600
O134        O  0.16907442  0.45763680  0.42809010    -0.75700
Ni135      Ni  0.15296384  0.38438994  0.41438220     1.25400
Ni136      Ni  0.12476555  0.41462597  0.43034807     1.25400
C137        C  0.19672421  0.45855136  0.41983083     0.86600
C138        C  0.07961612  0.34129922  0.42414867     0.86500
C139        C  0.12377107  0.41098856  0.38288203     0.86600
C140        C  0.15831038  0.39024018  0.46130112     0.86700
O141        O  0.41365763  0.20652095  0.25966466    -0.75600
O142        O  0.32482988  0.11843910  0.25191707    -0.75600
O143        O  0.37374117  0.14810856  0.28509632    -0.75700
O144        O  0.36438247  0.17852728  0.22675095    -0.75700
O145        O  0.39276012  0.15245953  0.21176057    -0.75600
O146        O  0.40477989  0.12373207  0.27161310    -0.75600
O147        O  0.35504642  0.09325840  0.23845505    -0.75600
O148        O  0.44248977  0.18066846  0.24494853    -0.75700
Ni149      Ni  0.36798333  0.16367246  0.25630199     1.25400
Ni150      Ni  0.39965895  0.13648551  0.24106181     1.25400
C151        C  0.44276461  0.20771885  0.25368542     0.86600
C152        C  0.32566384  0.09091293  0.24465354     0.86500
C153        C  0.39138363  0.13200780  0.28820762     0.86600
C154        C  0.37795111  0.17183048  0.20972413     0.86700
O155        O  0.32535510  0.12348555  0.41244242    -0.75600
O156        O  0.41382989  0.21270187  0.41554690    -0.75600
O157        O  0.38078854  0.15988311  0.38452237    -0.75700
O158        O  0.35636207  0.17581963  0.44312139    -0.75700
O159        O  0.38307206  0.14812327  0.45845921    -0.75600
O160        O  0.40794166  0.13183676  0.39885964    -0.75600
O161        O  0.44010836  0.18408654  0.43020171    -0.75600
O162        O  0.35293631  0.09615320  0.42715387    -0.75700
Ni163      Ni  0.36834604  0.16919241  0.41340661     1.25400
Ni164      Ni  0.39715924  0.13928456  0.42927506     1.25400
C165        C  0.32495731  0.09505595  0.41913920     0.86600
C166        C  0.44177818  0.21275681  0.42306052     0.86500
C167        C  0.39680285  0.14204949  0.38190699     0.86600
C168        C  0.36395670  0.16317375  0.46038427     0.86700
C169        C  0.42910739  0.14654025  0.32258698    -0.14500
C170        C  0.39637712  0.12455204  0.31167347     0.07700
C171        C  0.36584604  0.10373620  0.32464394    -0.14500
C172        C  0.36726231  0.10699415  0.34802164    -0.14500
C173        C  0.39919404  0.13119234  0.35884932     0.07700
C174        C  0.43050331  0.14995073  0.34612887    -0.14500
H175        H  0.45269475  0.16373516  0.31283082     0.11600
H176        H  0.34019310  0.08740255  0.31654937     0.11600
H177        H  0.34270922  0.09278805  0.35753394     0.11600
H178        H  0.45517253  0.16938878  0.35414096     0.11600
C179        C  0.22757696  0.02470289  0.41709985    -0.14500
C180        C  0.22957321  0.49326461  0.41815964     0.07700
C181        C  0.26300790  0.49549756  0.41846142    -0.14500
C182        C  0.29404250  0.02876163  0.41848339    -0.14500
C183        C  0.29207754  0.06024536  0.41782243     0.07700
C184        C  0.25862804  0.05797257  0.41673359    -0.14500
H185        H  0.20195846  0.52355264  0.41667791     0.11600
H186        H  0.26513656  0.47161567  0.41933890     0.11600
H187        H  0.31961481  0.02984411  0.41917240     0.11600
H188        H  0.25646336  0.08185326  0.41623273     0.11600
C189        C  0.01293203  0.31045941  0.42361316    -0.14500
C190        C  0.04442561  0.30837735  0.42397375     0.07700
C191        C  0.04182748  0.27478682  0.42384984    -0.14500
C192        C  0.50836486  0.24382996  0.42372854    -0.14500
C193        C  0.47685466  0.24585961  0.42326776     0.07700
C194        C  0.47943553  0.27946909  0.42302920    -0.14500
H195        H  0.01420364  0.33610944  0.42348679     0.11600
H196        H  0.06563442  0.27244931  0.42409695     0.11600
H197        H  0.50716664  0.21821862  0.42374445     0.11600
H198        H  0.45561233  0.28177880  0.42267360     0.11600
C199        C  0.22811520  0.01890592  0.24487476    -0.14500
C200        C  0.23042147  0.48756868  0.24552377     0.07700
C201        C  0.26423338  0.49051604  0.24534216    -0.14500
C202        C  0.29510132  0.02415361  0.24442718    -0.14500
C203        C  0.29277310  0.05550447  0.24416759     0.07700
C204        C  0.25895417  0.05251086  0.24443902    -0.14500
H205        H  0.20237473  0.51747275  0.24514604     0.11600
H206        H  0.26679783  0.46686411  0.24580189     0.11600
H207        H  0.32087062  0.02563661  0.24443992     0.11600
H208        H  0.25633738  0.07613540  0.24430634     0.11600
C209        C  0.01319748  0.30499094  0.25556817    -0.14500
C210        C  0.04472160  0.30304684  0.25682639     0.07700
C211        C  0.04225319  0.26962012  0.25890923    -0.14500
C212        C  0.50885254  0.23858826  0.25852655    -0.14500
C213        C  0.47742910  0.24055472  0.25646907     0.07700
C214        C  0.47981012  0.27400609  0.25558595    -0.14500
H215        H  0.01435968  0.33051825  0.25415642     0.11600
H216        H  0.06610135  0.26741126  0.25993548     0.11600
H217        H  0.50759958  0.21297161  0.25943901     0.11600
H218        H  0.45598511  0.27615970  0.25395916     0.11600
C219        C  0.15185812  0.44569223  0.32483846    -0.14500
C220        C  0.12304371  0.41998431  0.31221690     0.07700
C221        C  0.09137655  0.39584193  0.32331660    -0.14500
C222        C  0.08965203  0.39556825  0.34689341    -0.14500
C223        C  0.11946306  0.41968759  0.35956154     0.07700
C224        C  0.14999563  0.44567062  0.34832162    -0.14500
H225        H  0.17684555  0.46382470  0.31665049     0.11600
H226        H  0.06928765  0.37505310  0.31390541     0.11600
H227        H  0.06638090  0.37449615  0.35522956     0.11600
H228        H  0.17369676  0.46371960  0.35779591     0.11600
C229        C  0.17461370  0.38473116  0.52391247    -0.14500
C230        C  0.20756083  0.38526876  0.52367194     0.07700
C231        C  0.22358878  0.38719574  0.50289816    -0.14500
C232        C  0.20698042  0.38818148  0.48286196    -0.14500
C233        C  0.17434679  0.38817815  0.48304090     0.07700
C234        C  0.15839587  0.38665444  0.50381754    -0.14500
H235        H  0.16178152  0.38374591  0.53972682     0.11600
H236        H  0.24895615  0.38791163  0.50213388     0.11600
H237        H  0.22020246  0.38973591  0.46711094     0.11600
H238        H  0.13338097  0.38667447  0.50450423     0.11600
C239        C  0.30532315  0.39261431  0.68094298    -0.14500
C240        C  0.30064784  0.41881075  0.69176220     0.07700
C241        C  0.29978113  0.44553559  0.67887655    -0.14500
C242        C  0.30038704  0.44427514  0.65538742    -0.14500
C243        C  0.30137691  0.41602475  0.64451556     0.07700
C244        C  0.30546353  0.39108606  0.65739988    -0.14500
H245        H  0.30501942  0.37119165  0.69061258     0.11600
H246        H  0.29521398  0.46535656  0.68688722     0.11600
H247        H  0.29619174  0.46315900  0.64572504     0.11600
H248        H  0.30515722  0.36850802  0.64934289     0.11600
C249        C  0.22982752  0.49115832  0.58753547    -0.14500
C250        C  0.26112347  0.48909017  0.58729513     0.07700
C251        C  0.29452891  0.02062967  0.58735031    -0.14500
C252        C  0.29657888  0.05383605  0.58748948    -0.14500
C253        C  0.26524087  0.05587350  0.58712080     0.07700
C254        C  0.23187208  0.02431579  0.58723031    -0.14500
H255        H  0.20383202  0.46718818  0.58733647     0.11600
H256        H  0.31905817  0.51959278  0.58722553     0.11600
H257        H  0.32255543  0.07783027  0.58730137     0.11600
H258        H  0.20730212  0.02527480  0.58704667     0.11600
C259        C  0.22773498  0.26924680  0.58179411    -0.14500
C260        C  0.25869659  0.30289973  0.58160506     0.07700
C261        C  0.29229289  0.30505746  0.58223299    -0.14500
C262        C  0.29490653  0.27414670  0.58296532    -0.14500
C263        C  0.26397153  0.24047600  0.58258552     0.07700
C264        C  0.23035725  0.23831503  0.58202664    -0.14500
H265        H  0.20156853  0.26685874  0.58143026     0.11600
H266        H  0.31663403  0.33074218  0.58241474     0.11600
H267        H  0.32108696  0.27657720  0.58345446     0.11600
H268        H  0.20600829  0.21263543  0.58195049     0.11600
C269        C  0.31744955  0.16761390  0.48295290    -0.14500
C270        C  0.34839594  0.16446130  0.48239004     0.07700
C271        C  0.36256697  0.16060790  0.50278980    -0.14500
C272        C  0.34630257  0.16018980  0.52323910    -0.14500
C273        C  0.31497132  0.16261372  0.52371794     0.07700
C274        C  0.30064998  0.16620927  0.50334866    -0.14500
H275        H  0.30555004  0.17018368  0.46749716     0.11600
H276        H  0.38612875  0.15786540  0.50293076     0.11600
H277        H  0.35772227  0.15696328  0.53872102     0.11600
H278        H  0.27657281  0.16804564  0.50320901     0.11600
C279        C  0.29345135  0.05137423  0.76003122    -0.14500
C280        C  0.26216514  0.05357167  0.75988543     0.07700
C281        C  0.22886362  0.02184787  0.75923851    -0.14500
C282        C  0.22694917  0.98860134  0.75823804    -0.14500
C283        C  0.25829507  0.48645101  0.75837911     0.07700
C284        C  0.29152565  0.01816403  0.75952986    -0.14500
H285        H  0.31942604  0.07534613  0.76051309     0.11600
H286        H  0.20427867  0.02277363  0.75892035     0.11600
H287        H  0.20101157  0.46462136  0.75741135     0.11600
H288        H  0.31617509  0.51735848  0.75955396     0.11600
C289        C  0.29443012  0.27189232  0.74784715    -0.14500
C290        C  0.26277985  0.23882597  0.74857253     0.07700
C291        C  0.22970780  0.23770525  0.74812846    -0.14500
C292        C  0.22829535  0.26919661  0.74744380    -0.14500
C293        C  0.25993741  0.30227497  0.74763649     0.07700
C294        C  0.29301654  0.30340875  0.74760555    -0.14500
H295        H  0.32020971  0.27340238  0.74824673     0.11600
H296        H  0.20489972  0.21244725  0.74855217     0.11600
H297        H  0.20251919  0.26769914  0.74759011     0.11600
H298        H  0.31780621  0.32870206  0.74766060     0.11600
C299        C  0.21882441  0.14869828  0.68211854    -0.14500
C300        C  0.22377340  0.12272701  0.69315954     0.07700
C301        C  0.22632416  0.09692688  0.68037610    -0.14500
C302        C  0.22679306  0.09877090  0.65686899    -0.14500
C303        C  0.22506067  0.12662709  0.64586305     0.07700
C304        C  0.21965433  0.15076159  0.65857268    -0.14500
H305        H  0.21802567  0.16954805  0.69170334     0.11600
H306        H  0.23125472  0.07738615  0.68857155     0.11600
H307        H  0.23198958  0.08052018  0.64736439     0.11600
H308        H  0.21939618  0.17306616  0.65042760     0.11600
C309        C  0.16354650  0.30392235  0.83404341    -0.14500
C310        C  0.17676223  0.32239885  0.85437484     0.07700
C311        C  0.20648494  0.35725347  0.85373249    -0.14500
C312        C  0.22300024  0.37303212  0.83335436    -0.14500
C313        C  0.20961219  0.35472434  0.81306212     0.07700
C314        C  0.17952429  0.32014071  0.81356180    -0.14500
H315        H  0.14085361  0.27707379  0.83397311     0.11600
H316        H  0.21756736  0.37215919  0.86911259     0.11600
H317        H  0.24608375  0.39964179  0.83343647     0.11600
H318        H  0.16888018  0.30529278  0.79810289     0.11600
C319        C  0.15355757  0.35807907  0.14954371    -0.14500
C320        C  0.15189564  0.32467348  0.14921729     0.07700
C321        C  0.14917837  0.30738968  0.16971573    -0.14500
C322        C  0.14836983  0.32327401  0.19006001    -0.14500
C323        C  0.14923192  0.35627993  0.19032781     0.07700
C324        C  0.15175448  0.37348090  0.16983997    -0.14500
H325        H  0.15527495  0.37195003  0.13398319     0.11600
H326        H  0.14769625  0.28166623  0.17001241     0.11600
H327        H  0.14617774  0.30925617  0.20563310     0.11600
H328        H  0.15253517  0.39888303  0.16953240     0.11600
C329        C  0.13912248  0.22915608  0.01280830    -0.14500
C330        C  0.11998024  0.24087982  0.02582837     0.07700
C331        C  0.09637737  0.24968424  0.01516122    -0.14500
C332        C  0.09432340  0.24999352  0.99174698    -0.14500
C333        C  0.11550943  0.24105426  0.97859882     0.07700
C334        C  0.13671480  0.22903954  0.98922372    -0.14500
H335        H  0.15818105  0.22321176  0.02071335     0.11600
H336        H  0.08195484  0.25949596  0.02493011     0.11600
H337        H  0.07842251  0.26004499  0.98388439     0.11600
H338        H  0.15401916  0.22300507  0.97933033     0.11600
C339        C  0.04300738  0.30546834  0.90715078    -0.14500
C340        C  0.04535419  0.27447278  0.90959673     0.07700
C341        C  0.01372089  0.24133917  0.91164648    -0.14500
C342        C  0.48039410  0.23941627  0.91195907    -0.14500
C343        C  0.47808229  0.27052444  0.90973733     0.07700
C344        C  0.50973627  0.30347946  0.90698348    -0.14500
H345        H  0.06693372  0.33129038  0.90545386     0.11600
H346        H  0.01481771  0.21701538  0.91368858     0.11600
H347        H  0.45650775  0.21368040  0.91407969     0.11600
H348        H  0.50890372  0.32798527  0.90529855     0.11600
C349        C  0.29682994  0.30864438  0.91953774    -0.14500
C350        C  0.29582273  0.27596348  0.92313195     0.07700
C351        C  0.26306949  0.24536409  0.92791423    -0.14500
C352        C  0.23164657  0.24700323  0.92787198    -0.14500
C353        C  0.23256807  0.27936996  0.92347118     0.07700
C354        C  0.26544447  0.31038572  0.91990032    -0.14500
H355        H  0.32179973  0.33276042  0.91598016     0.11600
H356        H  0.26153659  0.21991487  0.93083202     0.11600
H357        H  0.20647249  0.22279811  0.93084949     0.11600
H358        H  0.26667343  0.33556101  0.91637699     0.11600
C359        C  0.36174976  0.23584797  0.83545151    -0.14500
C360        C  0.34463033  0.22289872  0.85612830     0.07700
C361        C  0.31055225  0.19203402  0.85635588    -0.14500
C362        C  0.29377200  0.17463358  0.83630887    -0.14500
C363        C  0.31114118  0.18718245  0.81562634     0.07700
C364        C  0.34538726  0.21792341  0.81546083    -0.14500
H365        H  0.38793765  0.25950014  0.83478186     0.11600
H366        H  0.29656459  0.18165404  0.87209610     0.11600
H367        H  0.26736993  0.15129455  0.83699932     0.11600
H368        H  0.35934957  0.22860574  0.79975303     0.11600
C369        C  0.37625414  0.18898446  0.14704166    -0.14500
C370        C  0.37805082  0.22247096  0.14692791     0.07700
C371        C  0.37948186  0.23871396  0.16756319    -0.14500
C372        C  0.37876071  0.22170733  0.18781432    -0.14500
C373        C  0.37757499  0.18852966  0.18793134     0.07700
C374        C  0.37651239  0.17241664  0.16731267    -0.14500
H375        H  0.37547637  0.17589960  0.13137079     0.11600
H376        H  0.38099572  0.26444658  0.16804370     0.11600
H377        H  0.37990962  0.23496262  0.20348666     0.11600
H378        H  0.37557032  0.14694801  0.16687846     0.11600
C379        C  0.01771510  0.24406416  0.08127139    -0.14500
C380        C  0.04922410  0.27728996  0.08312627     0.07700
C381        C  0.04722982  0.30857347  0.08377022    -0.14500
C382        C  0.51406186  0.30657672  0.08349799    -0.10900
C383        C  0.48246243  0.27330390  0.08219707     0.07700
C384        C  0.48453388  0.24209731  0.08060550    -0.14500
H385        H  0.01874240  0.21957595  0.08053012     0.11600
H386        H  0.07119794  0.33442692  0.08522046     0.11600
H387        H  0.51313064  0.33108798  0.08457427     0.11600
H388        H  0.46054704  0.21619048  0.07959946     0.11600
C389        C  0.26767275  0.30815266  0.09089361    -0.14500
C390        C  0.23414157  0.27700997  0.09110779     0.07700
C391        C  0.23233898  0.24360864  0.09108691    -0.14500
C392        C  0.26350072  0.24139945  0.09044005    -0.14500
C393        C  0.29702446  0.27255344  0.09029205     0.07700
C394        C  0.29882609  0.30594110  0.09073088    -0.14500
H395        H  0.26980884  0.33418609  0.09094886     0.11600
H396        H  0.20677221  0.21912850  0.09112298     0.11600
H397        H  0.26139386  0.21538231  0.09019783     0.11600
H398        H  0.32438240  0.33043318  0.09052946     0.11600
C399        C  0.38777044  0.32048557  0.01198975    -0.14500
C400        C  0.41025234  0.31252305  0.02478368     0.07700
C401        C  0.43645104  0.30804293  0.01382305    -0.14500
C402        C  0.43801685  0.30818526  0.99033806    -0.14500
C403        C  0.41364828  0.31320319  0.97745135     0.07700
C404        C  0.38961457  0.32102942  0.98840742    -0.14500
H405        H  0.36669307  0.32293179  0.02008638     0.11600
H406        H  0.45339379  0.30092540  0.02338364     0.11600
H407        H  0.45599787  0.30105506  0.98224937     0.11600
H408        H  0.36979762  0.32378362  0.97876123     0.11600
O409        O  0.41922129  0.74403607  0.07658775    -0.75600
O410        O  0.33009087  0.74318515  0.08140553    -0.75600
O411        O  0.38224622  0.76448699  0.04989582    -0.75700
O412        O  0.36736723  0.72111085  0.10764103    -0.75700
O413        O  0.39486338  0.77466627  0.12389999    -0.75600
O414        O  0.41123326  0.81892488  0.06505557    -0.75600
O415        O  0.35907178  0.79751533  0.09661169    -0.75600
O416        O  0.44679061  0.79791893  0.09250303    -0.75700
Ni417      Ni  0.37352709  0.74129370  0.07834381     1.25400
Ni418      Ni  0.40379428  0.79915149  0.09515705     1.25400
C419        C  0.44773832  0.77152381  0.08372270     0.86600
C420        C  0.33020830  0.77075441  0.08948046     0.86500
C421        C  0.40031674  0.79839575  0.04777732     0.86600
C422        C  0.37983375  0.74043601  0.12521999     0.86700
O423        O  0.32955706  0.74611202  0.92767942    -0.75600
O424        O  0.41584031  0.74214038  0.91953152    -0.75600
O425        O  0.38887882  0.76500334  0.95238882    -0.75700
O426        O  0.35486360  0.72165137  0.89520436    -0.75700
O427        O  0.38172508  0.77505806  0.87864475    -0.75600
O428        O  0.41351024  0.81939044  0.93714859    -0.75600
O429        O  0.44156300  0.79664957  0.90454026    -0.75600
O430        O  0.35552798  0.79948684  0.91107213    -0.75700
Ni431      Ni  0.37150374  0.74181971  0.92422716     1.25400
Ni432      Ni  0.39914623  0.79954977  0.90720154     1.25400
C433        C  0.32853702  0.77369024  0.92065360     0.86600
C434        C  0.44332213  0.76941940  0.91117409     0.86500
C435        C  0.40551896  0.79892896  0.95442574     0.86600
C436        C  0.36163358  0.74091633  0.87758199     0.86700
O437        O  0.11250444  0.80680795  0.07888249    -0.75600
O438        O  0.20123201  0.80692400  0.08327134    -0.75600
O439        O  0.14917771  0.78742688  0.05169982    -0.75700
O440        O  0.16410549  0.82791433  0.11015938    -0.75700
O441        O  0.13592788  0.77358214  0.12543236    -0.75600
O442        O  0.12020673  0.73222738  0.06583615    -0.75600
O443        O  0.17211721  0.75200679  0.09769569    -0.75600
O444        O  0.08439581  0.75196761  0.09355816    -0.75700
Ni445      Ni  0.15799417  0.80919758  0.08052162     1.25400
Ni446      Ni  0.12737585  0.75051373  0.09626372     1.25400
C447        C  0.08377890  0.77890414  0.08524982     0.86600
C448        C  0.20100924  0.77895978  0.09080433     0.86500
C449        C  0.13090403  0.75365701  0.04896790     0.86600
C450        C  0.15105011  0.80774038  0.12734773     0.86700
O451        O  0.19697094  0.80725065  0.92657002    -0.75600
O452        O  0.10776183  0.80531449  0.91838046    -0.75600
O453        O  0.13822331  0.78741132  0.95199641    -0.75700
O454        O  0.16756299  0.82634667  0.89331640    -0.75700
O455        O  0.14254105  0.77164703  0.87876149    -0.75600
O456        O  0.11497297  0.73198859  0.93867618    -0.75600
O457        O  0.08329197  0.74969672  0.90532001    -0.75600
O458        O  0.17223119  0.75230222  0.91227164    -0.75700
Ni459      Ni  0.15335807  0.80850304  0.92303501     1.25400
Ni460      Ni  0.12725245  0.74945003  0.90815740     1.25400
C461        C  0.19900964  0.77978556  0.92077700     0.86600
C462        C  0.08058125  0.77674237  0.91100207     0.86500
C463        C  0.12282133  0.75371203  0.95519477     0.86600
C464        C  0.16104145  0.80577681  0.87642394     0.86700
O465        O  0.29142524  0.70411382  0.74440354    -0.75600
O466        O  0.29198080  0.61609151  0.75151511    -0.75600
O467        O  0.27141629  0.64566541  0.71882056    -0.75700
O468        O  0.31339182  0.67606704  0.77677091    -0.75700
O469        O  0.25942427  0.65048712  0.79244266    -0.75600
O470        O  0.21658983  0.62113733  0.73333314    -0.75600
O471        O  0.23715786  0.59091946  0.76596555    -0.75600
O472        O  0.23716970  0.67856225  0.75977790    -0.75700
Ni473      Ni  0.29395909  0.66120394  0.74738627     1.25400
Ni474      Ni  0.23565893  0.63420521  0.76352636     1.25400
C475        C  0.26394019  0.70559850  0.75092897     0.86600
C476        C  0.26406080  0.58865934  0.75929599     0.86500
C477        C  0.23751866  0.62957467  0.71633631     0.86600
C478        C  0.29364001  0.66986599  0.79404424     0.86700
O479        O  0.29422569  0.61879710  0.59333776    -0.75600
O480        O  0.29411577  0.70758639  0.59033135    -0.75600
O481        O  0.27332182  0.65418505  0.62092338    -0.75700
O482        O  0.31660813  0.67184860  0.56311397    -0.75700
O483        O  0.26290271  0.64486374  0.54679214    -0.75600
O484        O  0.21881822  0.62553157  0.60560883    -0.75600
O485        O  0.23968424  0.67892752  0.57503762    -0.75600
O486        O  0.24023017  0.59154705  0.57732983    -0.75700
Ni487      Ni  0.29649682  0.66428807  0.59246597     1.25400
Ni488      Ni  0.23852304  0.63440745  0.57554523     1.25400
C489        C  0.26682960  0.59050055  0.58589891     0.86600
C490        C  0.26626074  0.70752649  0.58261427     0.86500
C491        C  0.23937061  0.63612995  0.62293335     0.86600
C492        C  0.29715688  0.66005261  0.54548629     0.86700
O493        O  0.23139767  0.83684519  0.74201580    -0.75600
O494        O  0.22944110  0.92426074  0.74867569    -0.75600
O495        O  0.25187544  0.89561073  0.71646785    -0.75700
O496        O  0.20780828  0.86388774  0.77379343    -0.75700
O497        O  0.26139958  0.89044857  0.79028603    -0.75600
O498        O  0.30616754  0.92005480  0.73200488    -0.75600
O499        O  0.28395455  0.94962281  0.76382617    -0.75600
O500        O  0.28499426  0.86254532  0.75853339    -0.75700
Ni501      Ni  0.22822192  0.87941512  0.74466927     1.25400
Ni502      Ni  0.28601624  0.90671285  0.76180697     1.25400
C503        C  0.25867367  0.83548697  0.74932107     0.86600
C504        C  0.25691868  0.95163777  0.75698903     0.86500
C505        C  0.28588285  0.91173834  0.71462195     0.86600
C506        C  0.22720721  0.87085769  0.79141658     0.86700
O507        O  0.23170132  0.92619110  0.59345848    -0.75600
O508        O  0.22921528  0.83632403  0.58916345    -0.75600
O509        O  0.25236349  0.88921308  0.62003800    -0.75700
O510        O  0.20689936  0.87372898  0.56286688    -0.75700
O511        O  0.26001445  0.90028687  0.54603880    -0.75600
O512        O  0.30635680  0.91718241  0.60420399    -0.75600
O513        O  0.28306590  0.86425912  0.57325426    -0.75600
O514        O  0.28518677  0.95288346  0.57698729    -0.75700
Ni515      Ni  0.22813284  0.88019230  0.59192630     1.25400
Ni516      Ni  0.28550561  0.90938877  0.57442604     1.25400
C517        C  0.25915954  0.95432944  0.58595256     0.86600
C518        C  0.25657472  0.83592237  0.58116146     0.86500
C519        C  0.28639355  0.90666843  0.62171141     0.86600
C520        C  0.22578120  0.88601187  0.54511629     0.86700
O521        O  0.10841790  0.83702927  0.26161382    -0.75600
O522        O  0.19783636  0.92500070  0.25479444    -0.75600
O523        O  0.14717272  0.89573952  0.28718979    -0.75700
O524        O  0.15926263  0.86475871  0.22965019    -0.75700
O525        O  0.13190938  0.89107747  0.21327883    -0.75600
O526        O  0.11702129  0.92008375  0.27195978    -0.75600
O527        O  0.16823365  0.95005447  0.23986279    -0.75600
O528        O  0.08054984  0.86287341  0.24526984    -0.75700
Ni529      Ni  0.15432230  0.87983757  0.25884570     1.25400
Ni530      Ni  0.12355107  0.90701650  0.24195077     1.25400
C531        C  0.07967861  0.83581982  0.25458146     0.86600
C532        C  0.19739191  0.95235905  0.24667357     0.86500
C533        C  0.12946210  0.91198000  0.28924107     0.86600
C534        C  0.14693341  0.87186526  0.21203383     0.86700
O535        O  0.19602618  0.93002647  0.41314368    -0.75600
O536        O  0.10742460  0.84112502  0.41676708    -0.75600
O537        O  0.13985578  0.89326371  0.38558958    -0.75700
O538        O  0.16555265  0.87780449  0.44392613    -0.75700
O539        O  0.13928441  0.90548937  0.45959876    -0.75600
O540        O  0.11357867  0.92204748  0.39980983    -0.75600
O541        O  0.08156439  0.87000647  0.43134553    -0.75600
O542        O  0.16907537  0.95763705  0.42809034    -0.75700
Ni543      Ni  0.15296379  0.88439000  0.41438222     1.25400
Ni544      Ni  0.12476625  0.91462650  0.43034848     1.25400
C545        C  0.19672490  0.95855141  0.41983079     0.86600
C546        C  0.07961620  0.84129974  0.42414951     0.86500
C547        C  0.12377086  0.91098918  0.38288249     0.86600
C548        C  0.15831127  0.89024037  0.46130109     0.86700
O549        O  0.41365568  0.70651746  0.25966109    -0.75600
O550        O  0.32482882  0.61843474  0.25191369    -0.75600
O551        O  0.37373868  0.64810641  0.28509367    -0.75700
O552        O  0.36438199  0.67852167  0.22674676    -0.75700
O553        O  0.39276079  0.65245389  0.21175809    -0.75600
O554        O  0.40477855  0.62372993  0.27161243    -0.75600
O555        O  0.35504631  0.59325378  0.23845364    -0.75600
O556        O  0.44248889  0.68066481  0.24494679    -0.75700
Ni557      Ni  0.36798178  0.66366851  0.25629846     1.25400
Ni558      Ni  0.39965853  0.63648140  0.24106032     1.25400
C559        C  0.44276305  0.70771546  0.25368271     0.86600
C560        C  0.32566332  0.59090838  0.24465113     0.86500
C561        C  0.39138171  0.63200653  0.28820625     0.86600
C562        C  0.37795183  0.67182477  0.20972061     0.86700
O563        O  0.32535326  0.62348596  0.41244206    -0.75600
O564        O  0.41382774  0.71270252  0.41554763    -0.75600
O565        O  0.38078695  0.65988483  0.38452233    -0.75700
O566        O  0.35635938  0.67581902  0.44312174    -0.75700
O567        O  0.38306957  0.64812262  0.45845920    -0.75600
O568        O  0.40794009  0.63183822  0.39885912    -0.75600
O569        O  0.44010632  0.68408702  0.43020198    -0.75600
O570        O  0.35293470  0.59615364  0.42715320    -0.75700
Ni571      Ni  0.36834399  0.66919298  0.41340681     1.25400
Ni572      Ni  0.39715734  0.63928500  0.42927481     1.25400
C573        C  0.32495567  0.59505633  0.41913858     0.86600
C574        C  0.44177608  0.71275741  0.42306111     0.86500
C575        C  0.39680136  0.64205138  0.38190659     0.86600
C576        C  0.36395377  0.66317263  0.46038448     0.86700
C577        C  0.42910544  0.64654270  0.32258607    -0.14500
C578        C  0.39637535  0.62455306  0.31167270     0.07700
C579        C  0.36584456  0.60373719  0.32464340    -0.14500
C580        C  0.36726100  0.60699576  0.34802111    -0.14500
C581        C  0.39919257  0.63119475  0.35884867     0.07700
C582        C  0.43050147  0.64995385  0.34612796    -0.14500
H583        H  0.45269243  0.66373769  0.31282979     0.11600
H584        H  0.34019175  0.58740255  0.31654899     0.11600
H585        H  0.34270810  0.59278914  0.35753353     0.11600
H586        H  0.45517061  0.66939269  0.35413987     0.11600
C587        C  0.22757561  0.52470263  0.41709858    -0.14500
C588        C  0.22957419  0.99326458  0.41815975     0.07700
C589        C  0.26300877  0.99549720  0.41846073    -0.14500
C590        C  0.29404141  0.52876210  0.41848376    -0.14500
C591        C  0.29207612  0.56024561  0.41782174     0.07700
C592        C  0.25862649  0.55797247  0.41673205    -0.14500
H593        H  0.20195999  0.02355321  0.41667986     0.11600
H594        H  0.26513717  0.97161510  0.41933735     0.11600
H595        H  0.31961377  0.52984481  0.41917346     0.11600
H596        H  0.25646158  0.58185288  0.41623034     0.11600
C597        C  0.01293212  0.81046016  0.42361390    -0.14500
C598        C  0.04442559  0.80837796  0.42397525     0.07700
C599        C  0.04182728  0.77478730  0.42385290    -0.14500
C600        C  0.50836285  0.74383067  0.42372954    -0.14500
C601        C  0.47685258  0.74586023  0.42326842     0.07700
C602        C  0.47943342  0.77946968  0.42302924    -0.14500
H603        H  0.01420391  0.83611035  0.42348643     0.11600
H604        H  0.06563412  0.77244972  0.42410078     0.11600
H605        H  0.50716470  0.71821935  0.42374594     0.11600
H606        H  0.45561018  0.78177937  0.42267335     0.11600
C607        C  0.22811461  0.51890177  0.24487111    -0.14500
C608        C  0.23042240  0.98757295  0.24552575     0.07700
C609        C  0.26423435  0.99052058  0.24534288    -0.14500
C610        C  0.29510056  0.52414893  0.24442623    -0.14500
C611        C  0.29277260  0.55549990  0.24416513     0.07700
C612        C  0.25895373  0.55250654  0.24443511    -0.14500
H613        H  0.20237524  0.01747659  0.24515076     0.11600
H614        H  0.26679904  0.96686869  0.24580134     0.11600
H615        H  0.32086987  0.52563178  0.24444006     0.11600
H616        H  0.25633713  0.57613114  0.24430117     0.11600
C617        C  0.01319936  0.80499267  0.25556763    -0.14500
C618        C  0.04472388  0.80304939  0.25682647     0.07700
C619        C  0.04225621  0.76962302  0.25890971    -0.14500
C620        C  0.50885095  0.73858577  0.25852421    -0.14500
C621        C  0.47742727  0.74055167  0.25646642     0.07700
C622        C  0.47980771  0.77400282  0.25558337    -0.14500
H623        H  0.01436098  0.83051969  0.25415551     0.11600
H624        H  0.06610464  0.76741481  0.25993641     0.11600
H625        H  0.50759847  0.71296930  0.25943660     0.11600
H626        H  0.45598260  0.77615600  0.25395636     0.11600
C627        C  0.15185908  0.94569427  0.32483938    -0.14500
C628        C  0.12304421  0.91998762  0.31221753     0.07700
C629        C  0.09137647  0.89584594  0.32331697    -0.14500
C630        C  0.08965185  0.89557137  0.34689380    -0.14500
C631        C  0.11946336  0.91968922  0.35956215     0.07700
C632        C  0.14999651  0.94567185  0.34832252    -0.14500
H633        H  0.17684695  0.96382619  0.31665160     0.11600
H634        H  0.06928712  0.87505804  0.31390552     0.11600
H635        H  0.06638019  0.87449968  0.35522972     0.11600
H636        H  0.17369787  0.96371967  0.35779696     0.11600
C637        C  0.17461377  0.88473061  0.52391237    -0.14500
C638        C  0.20756118  0.88526876  0.52367205     0.07700
C639        C  0.22358965  0.88719631  0.50289838    -0.14500
C640        C  0.20698149  0.88818205  0.48286206    -0.14500
C641        C  0.17434758  0.88817817  0.48304085     0.07700
C642        C  0.15839619  0.88665390  0.50381736    -0.14500
H643        H  0.16178119  0.88374490  0.53972657     0.11600
H644        H  0.24895727  0.88791264  0.50213426     0.11600
H645        H  0.22020384  0.88973692  0.46711113     0.11600
H646        H  0.13338102  0.88667348  0.50450392     0.11600
C647        C  0.30532122  0.89261227  0.68094377    -0.14500
C648        C  0.30064655  0.91880902  0.69176314     0.07700
C649        C  0.29978004  0.94553404  0.67887759    -0.14500
C650        C  0.30038553  0.94427356  0.65538846    -0.14500
C651        C  0.30137494  0.91602303  0.64451647     0.07700
C652        C  0.30546132  0.89108407  0.65740065    -0.14500
H653        H  0.30501725  0.87118943  0.69061327     0.11600
H654        H  0.29521326  0.96535520  0.68688838     0.11600
H655        H  0.29619041  0.96315761  0.64572620     0.11600
H656        H  0.30515466  0.86850591  0.64934355     0.11600
C657        C  0.22982917  0.99115970  0.58753743    -0.14500
C658        C  0.26112479  0.98909094  0.58729525     0.07700
C659        C  0.29452736  0.52062912  0.58735197    -0.14500
C660        C  0.29657679  0.55383522  0.58749119    -0.14500
C661        C  0.26523855  0.55587220  0.58712079     0.07700
C662        C  0.23186994  0.52431417  0.58722841    -0.14500
H663        H  0.20383348  0.96718985  0.58733991     0.11600
H664        H  0.31905958  0.01959301  0.58722247     0.11600
H665        H  0.32255331  0.57782971  0.58730457     0.11600
H666        H  0.20729976  0.52527273  0.58704338     0.11600
C667        C  0.22773199  0.76924536  0.58179656    -0.14500
C668        C  0.25869374  0.80289821  0.58160661     0.07700
C669        C  0.29228996  0.80505572  0.58223407    -0.14500
C670        C  0.29490344  0.77414492  0.58296652    -0.14500
C671        C  0.26396835  0.74047429  0.58258733     0.07700
C672        C  0.23035411  0.73831347  0.58202922    -0.14500
H673        H  0.20156562  0.76685746  0.58143319     0.11600
H674        H  0.31663122  0.83074036  0.58241522     0.11600
H675        H  0.32108387  0.77657531  0.58345512     0.11600
H676        H  0.20600504  0.71263385  0.58195365     0.11600
C677        C  0.31744555  0.66761127  0.48295313    -0.14500
C678        C  0.34839232  0.66445924  0.48239031     0.07700
C679        C  0.36256326  0.66060594  0.50279012    -0.14500
C680        C  0.34629870  0.66018776  0.52323941    -0.14500
C681        C  0.31496729  0.66261148  0.52371825     0.07700
C682        C  0.30064582  0.66620655  0.50334890    -0.14500
H683        H  0.30554605  0.67018088  0.46749739     0.11600
H684        H  0.38612527  0.65786381  0.50293116     0.11600
H685        H  0.35771854  0.65696154  0.53872134     0.11600
H686        H  0.27656844  0.66804267  0.50320917     0.11600
C687        C  0.29345544  0.55137549  0.76003203    -0.14500
C688        C  0.26216938  0.55357317  0.75988503     0.07700
C689        C  0.22886775  0.52184968  0.75923717    -0.14500
C690        C  0.22695298  0.48860309  0.75823700    -0.14500
C691        C  0.25829149  0.98644961  0.75837891     0.07700
C692        C  0.29152938  0.51816513  0.75953098    -0.14500
H693        H  0.31943015  0.57534725  0.76051472     0.11600
H694        H  0.20428296  0.52277572  0.75891808     0.11600
H695        H  0.20100784  0.96461936  0.75741319     0.11600
H696        H  0.31617152  0.01735773  0.75955191     0.11600
C697        C  0.29443172  0.77189339  0.74784801    -0.14500
C698        C  0.26278200  0.73882673  0.74857614     0.07700
C699        C  0.22970954  0.73770532  0.74813485    -0.14500
C700        C  0.22829620  0.76919618  0.74744988    -0.14500
C701        C  0.25993784  0.80227489  0.74763948     0.07700
C702        C  0.29301733  0.80340945  0.74760613    -0.14500
H703        H  0.32021170  0.77340410  0.74824539     0.11600
H704        H  0.20490176  0.71244714  0.74856078     0.11600
H705        H  0.20251982  0.76769820  0.74759826     0.11600
H706        H  0.31780661  0.82870309  0.74765887     0.11600
C707        C  0.21882729  0.64870069  0.68212006    -0.14500
C708        C  0.22377535  0.62272894  0.69316118     0.07700
C709        C  0.22632385  0.59692736  0.68037789    -0.14500
C710        C  0.22679139  0.59877031  0.65687072    -0.14500
C711        C  0.22505982  0.62662683  0.64586458     0.07700
C712        C  0.21965577  0.65076286  0.65857416    -0.14500
H713        H  0.21803025  0.66955148  0.69170469     0.11600
H714        H  0.23125365  0.57738617  0.68857342     0.11600
H715        H  0.23198627  0.58051842  0.64736617     0.11600
H716        H  0.21939838  0.67306773  0.65042892     0.11600
C717        C  0.16355324  0.80391742  0.83404489    -0.14500
C718        C  0.17675771  0.82240104  0.85437530     0.07700
C719        C  0.20647005  0.85726209  0.85373173    -0.14500
C720        C  0.22298658  0.87304000  0.83335372    -0.14500
C721        C  0.20960980  0.85472459  0.81306268     0.07700
C722        C  0.17953198  0.82013461  0.81356326    -0.14500
H723        H  0.14086884  0.77706381  0.83397539     0.11600
H724        H  0.21754391  0.87217397  0.86911093     0.11600
H725        H  0.24606193  0.89965487  0.83343485     0.11600
H726        H  0.16889690  0.80528122  0.79810514     0.11600
C727        C  0.15355977  0.85808176  0.14954504    -0.14500
C728        C  0.15189660  0.82467558  0.14921880     0.07700
C729        C  0.14917922  0.80739199  0.16971732    -0.14500
C730        C  0.14837156  0.82327699  0.19006152    -0.14500
C731        C  0.14923461  0.85628340  0.19032911     0.07700
C732        C  0.15175751  0.87348426  0.16984121    -0.14500
H733        H  0.15527741  0.87195265  0.13398448     0.11600
H734        H  0.14769632  0.78166810  0.17001415     0.11600
H735        H  0.14617922  0.80925932  0.20563466     0.11600
H736        H  0.15253898  0.89888678  0.16953349     0.11600
C737        C  0.13911516  0.72915238  0.01280963    -0.14500
C738        C  0.11997892  0.74088303  0.02582986     0.07700
C739        C  0.09638124  0.74969466  0.01516292    -0.14500
C740        C  0.09432719  0.75000443  0.99174878    -0.14500
C741        C  0.11550789  0.74105851  0.97860037     0.07700
C742        C  0.13670734  0.72903641  0.98922500    -0.14500
H743        H  0.15816963  0.72320214  0.02071452     0.11600
H744        H  0.08196320  0.75951142  0.02493194     0.11600
H745        H  0.07843079  0.76006124  0.98388642     0.11600
H746        H  0.15400751  0.72299639  0.97933141     0.11600
C747        C  0.04300453  0.80547033  0.90715419    -0.14500
C748        C  0.04535189  0.77447517  0.90960051     0.07700
C749        C  0.01371902  0.74134141  0.91165131    -0.14500
C750        C  0.48039236  0.73941918  0.91196605    -0.14500
C751        C  0.47808048  0.77052699  0.90974202     0.07700
C752        C  0.50973407  0.80348140  0.90698510    -0.14500
H753        H  0.06693065  0.83129253  0.90545657     0.11600
H754        H  0.01481639  0.71701798  0.91369385     0.11600
H755        H  0.45650626  0.71368378  0.91408902     0.11600
H756        H  0.50890139  0.82798689  0.90529827     0.11600
C757        C  0.29682748  0.80864589  0.91953550    -0.14500
C758        C  0.29581974  0.77596472  0.92312946     0.07700
C759        C  0.26306642  0.74536557  0.92791191    -0.14500
C760        C  0.23164391  0.74700533  0.92787035    -0.14500
C761        C  0.23256591  0.77937240  0.92347004     0.07700
C762        C  0.26544240  0.81038787  0.91989876    -0.14500
H763        H  0.32179751  0.83276183  0.91597787     0.11600
H764        H  0.26153320  0.71991623  0.93082953     0.11600
H765        H  0.20646971  0.72280037  0.93084811     0.11600
H766        H  0.26667165  0.83556325  0.91637577     0.11600
C767        C  0.36175352  0.73584542  0.83545358    -0.14500
C768        C  0.34463357  0.72289560  0.85613016     0.07700
C769        C  0.31055624  0.69202994  0.85635745    -0.14500
C770        C  0.29377673  0.67462977  0.83631023    -0.14500
C771        C  0.31114598  0.68717994  0.81562785     0.07700
C772        C  0.34539182  0.71792115  0.81546271    -0.14500
H773        H  0.38794094  0.75949831  0.83478419     0.11600
H774        H  0.29656825  0.68164942  0.87209750     0.11600
H775        H  0.26737494  0.65129036  0.83700038     0.11600
H776        H  0.35935423  0.72860425  0.79975506     0.11600
C777        C  0.37625766  0.68898088  0.14703784    -0.14500
C778        C  0.37805511  0.72246780  0.14692456     0.07700
C779        C  0.37948645  0.73871029  0.16756006    -0.14500
C780        C  0.37876457  0.72170289  0.18781092    -0.14500
C781        C  0.37757760  0.68852464  0.18792764     0.07700
C782        C  0.37651510  0.67241211  0.16730875    -0.14500
H783        H  0.37547957  0.67589643  0.13136679     0.11600
H784        H  0.38100088  0.76444319  0.16804100     0.11600
H785        H  0.37991357  0.73495791  0.20348334     0.11600
H786        H  0.37557216  0.64694303  0.16687428     0.11600
C787        C  0.01771644  0.74406732  0.08126929    -0.14500
C788        C  0.04922521  0.77729312  0.08312503     0.07700
C789        C  0.04723063  0.80857654  0.08376818    -0.14500
C790        C  0.51406310  0.80658077  0.08349311    -0.10900
C791        C  0.48246366  0.77330803  0.08219121     0.07700
C792        C  0.48453522  0.74210149  0.08059994    -0.14500
H793        H  0.01874391  0.71957906  0.08052844     0.11600
H794        H  0.07119850  0.83442997  0.08521887     0.11600
H795        H  0.51313180  0.83109200  0.08456922     0.11600
H796        H  0.46054836  0.71619465  0.07959322     0.11600
C797        C  0.26767222  0.80815206  0.09089796    -0.14500
C798        C  0.23414090  0.77700951  0.09111115     0.07700
C799        C  0.23233811  0.74360809  0.09108986    -0.14500
C800        C  0.26349983  0.74139872  0.09044312    -0.14500
C801        C  0.29702372  0.77255262  0.09029574     0.07700
C802        C  0.29882546  0.80594030  0.09073539    -0.14500
H803        H  0.26980851  0.83418553  0.09095362     0.11600
H804        H  0.20677122  0.71912804  0.09112526     0.11600
H805        H  0.26139285  0.71538160  0.09020023     0.11600
H806        H  0.32438182  0.83043235  0.09053444     0.11600
C807        C  0.38773377  0.82046218  0.01198970    -0.14500
C808        C  0.41023883  0.81253208  0.02478389     0.07700
C809        C  0.43645709  0.80808335  0.01382333    -0.14500
C810        C  0.43802200  0.80822483  0.99033805    -0.14500
C811        C  0.41363296  0.81321114  0.97745152     0.07700
C812        C  0.38957700  0.82100577  0.98840761    -0.14500
H813        H  0.36664155  0.82288300  0.02008624     0.11600
H814        H  0.45341768  0.80098957  0.02338415     0.11600
H815        H  0.45602048  0.80111805  0.98224931     0.11600
H816        H  0.36974473  0.82373469  0.97876156     0.11600
O817        O  0.91922091  0.24403341  0.07659229    -0.75600
O818        O  0.83009192  0.24318622  0.08140415    -0.75600
O819        O  0.88225038  0.26448414  0.04989667    -0.75700
O820        O  0.86736412  0.22111196  0.10764332    -0.75700
O821        O  0.89486101  0.27466830  0.12390108    -0.75600
O822        O  0.91123626  0.31892315  0.06505489    -0.75600
O823        O  0.85907262  0.29751704  0.09660946    -0.75600
O824        O  0.94679036  0.29791768  0.09250570    -0.75700
Ni825      Ni  0.87352744  0.24129289  0.07834543     1.25400
Ni826      Ni  0.90379455  0.29915178  0.09515721     1.25400
C827        C  0.94773786  0.27152146  0.08372696     0.86600
C828        C  0.83020940  0.27075609  0.08947800     0.86500
C829        C  0.90032207  0.29839268  0.04777718     0.86600
C830        C  0.87983030  0.24043801  0.12522193     0.86700
O831        O  0.82956106  0.24611235  0.92767970    -0.75600
O832        O  0.91584253  0.24213862  0.91952718    -0.75600
O833        O  0.88888472  0.26500056  0.95238694    -0.75700
O834        O  0.85486426  0.22165257  0.89520217    -0.75700
O835        O  0.88172638  0.27506014  0.87864371    -0.75600
O836        O  0.91351520  0.31938877  0.93714847    -0.75600
O837        O  0.94156574  0.29664914  0.90453787    -0.75600
O838        O  0.85553176  0.29948783  0.91107333    -0.75700
Ni839      Ni  0.87150688  0.24181896  0.92422507     1.25400
Ni840      Ni  0.89914941  0.29955008  0.90720099     1.25400
C841        C  0.82854098  0.27369099  0.92065478     0.86600
C842        C  0.94332453  0.26941813  0.91117031     0.86500
C843        C  0.90552581  0.29892604  0.95442490     0.86600
C844        C  0.86163379  0.24091856  0.87758034     0.86700
O845        O  0.61250240  0.30680446  0.07888136    -0.75600
O846        O  0.70123172  0.30692410  0.08326917    -0.75600
O847        O  0.64917653  0.28742472  0.05169816    -0.75700
O848        O  0.66410421  0.32791296  0.11015765    -0.75700
O849        O  0.63592835  0.27358093  0.12543093    -0.75600
O850        O  0.62020761  0.23222549  0.06583501    -0.75600
O851        O  0.67211874  0.25200716  0.09769405    -0.75600
O852        O  0.58439565  0.25196427  0.09355732    -0.75700
Ni853      Ni  0.65799289  0.30919587  0.08051991     1.25400
Ni854      Ni  0.62737659  0.25051223  0.09626244     1.25400
C855        C  0.58377764  0.27890041  0.08524935     0.86600
C856        C  0.70101006  0.27896044  0.09080216     0.86500
C857        C  0.63090438  0.25365470  0.04896656     0.86600
C858        C  0.65104944  0.30773910  0.12734613     0.86700
O859        O  0.69697304  0.30724929  0.92657025    -0.75600
O860        O  0.60776352  0.30531181  0.91837880    -0.75600
O861        O  0.63822410  0.28740839  0.95199551    -0.75700
O862        O  0.66756618  0.32634538  0.89331596    -0.75700
O863        O  0.64254525  0.27164608  0.87876057    -0.75600
O864        O  0.61497519  0.23198614  0.93867469    -0.75600
O865        O  0.58329487  0.24969442  0.90531791    -0.75600
O866        O  0.67223481  0.25230131  0.91227131    -0.75700
Ni867      Ni  0.65335991  0.30850095  0.92303434     1.25400
Ni868      Ni  0.62725572  0.24944839  0.90815618     1.25400
C869        C  0.69901258  0.27978464  0.92077728     0.86600
C870        C  0.58058351  0.27673983  0.91099970     0.86500
C871        C  0.62282298  0.25370906  0.95519350     0.86600
C872        C  0.66104539  0.30577590  0.87642337     0.86700
O873        O  0.79142359  0.20411335  0.74440215    -0.75600
O874        O  0.79197798  0.11609070  0.75151487    -0.75600
O875        O  0.77141459  0.14566470  0.71881970    -0.75700
O876        O  0.81338913  0.17606693  0.77677016    -0.75700
O877        O  0.75942139  0.15048817  0.79244156    -0.75600
O878        O  0.71658785  0.12113699  0.73333183    -0.75600
O879        O  0.73715497  0.09091930  0.76596510    -0.75600
O880        O  0.73716759  0.17856251  0.75977585    -0.75700
Ni881      Ni  0.79395685  0.16120332  0.74738550     1.25400
Ni882      Ni  0.73565642  0.13420536  0.76352515     1.25400
C883        C  0.76393854  0.20559845  0.75092703     0.86600
C884        C  0.76405782  0.08865874  0.75929578     0.86500
C885        C  0.73751704  0.12957447  0.71633517     0.86600
C886        C  0.79363714  0.16986704  0.79404326     0.86700
O887        O  0.79422887  0.11879853  0.59333771    -0.75600
O888        O  0.79412091  0.20758882  0.59033032    -0.75600
O889        O  0.77332533  0.15418766  0.62092269    -0.75700
O890        O  0.81661263  0.17184989  0.56311356    -0.75700
O891        O  0.76290738  0.14486583  0.54679148    -0.75600
O892        O  0.71882204  0.12553463  0.60560768    -0.75600
O893        O  0.73968954  0.17893049  0.57503634    -0.75600
O894        O  0.74023365  0.09154912  0.57732936    -0.75700
Ni895      Ni  0.79650093  0.16428997  0.59246544     1.25400
Ni896      Ni  0.73852739  0.13441001  0.57554433     1.25400
C897        C  0.76683257  0.09050215  0.58589888     0.86600
C898        C  0.76626623  0.20752933  0.58261297     0.86500
C899        C  0.73937402  0.13613305  0.62293235     0.86600
C900        C  0.79716150  0.16005443  0.54548578     0.86700
O901        O  0.73139922  0.33684708  0.74201469    -0.75600
O902        O  0.72944398  0.42426287  0.74867579    -0.75600
O903        O  0.75187764  0.39561338  0.71646739    -0.75700
O904        O  0.70781080  0.36388948  0.77379308    -0.75700
O905        O  0.76140226  0.39044944  0.79028544    -0.75600
O906        O  0.80616976  0.42005643  0.73200431    -0.75600
O907        O  0.78395753  0.44962422  0.76382611    -0.75600
O908        O  0.78499583  0.36254620  0.75853221    -0.75700
Ni909      Ni  0.72822420  0.37941724  0.74466883     1.25400
Ni910      Ni  0.78601860  0.40671401  0.76180636     1.25400
C911        C  0.75867499  0.33548826  0.74931973     0.86600
C912        C  0.75692178  0.45163957  0.75698917     0.86500
C913        C  0.78588506  0.41174072  0.71462144     0.86600
C914        C  0.72720990  0.37085886  0.79141614     0.86700
O915        O  0.73170374  0.42619172  0.59345845    -0.75600
O916        O  0.72922043  0.33632609  0.58916316    -0.75600
O917        O  0.75236776  0.38921505  0.62003773    -0.75700
O918        O  0.70690256  0.37372968  0.56286695    -0.75700
O919        O  0.76001741  0.40028861  0.54603855    -0.75600
O920        O  0.80636087  0.41718570  0.60420349    -0.75600
O921        O  0.78307090  0.36426227  0.57325380    -0.75600
O922        O  0.78518896  0.45288526  0.57698693    -0.75700
Ni923      Ni  0.72813664  0.38019359  0.59192619     1.25400
Ni924      Ni  0.78550919  0.40939130  0.57442563     1.25400
C925        C  0.75916136  0.45433039  0.58595234     0.86600
C926        C  0.75658012  0.33592516  0.58116095     0.86500
C927        C  0.78639781  0.40667135  0.62171099     0.86600
C928        C  0.72578406  0.38601295  0.54511627     0.86700
O929        O  0.60841820  0.33702820  0.26161308    -0.75600
O930        O  0.69783724  0.42499879  0.25479245    -0.75600
O931        O  0.64717480  0.39573838  0.28718871    -0.75700
O932        O  0.65926166  0.36475675  0.22964857    -0.75700
O933        O  0.63190843  0.39107603  0.21327787    -0.75600
O934        O  0.61702346  0.42008324  0.27195943    -0.75600
O935        O  0.66823464  0.45005313  0.23986149    -0.75600
O936        O  0.58055023  0.36287297  0.24526981    -0.75700
Ni937      Ni  0.65432288  0.37983604  0.25884431     1.25400
Ni938      Ni  0.62355173  0.40701561  0.24195014     1.25400
C939        C  0.57967884  0.33581925  0.25458133     0.86600
C940        C  0.69739301  0.45235729  0.24667166     0.86500
C941        C  0.62946448  0.41197910  0.28924046     0.86600
C942        C  0.64693200  0.37186343  0.21203246     0.86700
O943        O  0.69602761  0.43002576  0.41314429    -0.75600
O944        O  0.60742618  0.34112412  0.41676712    -0.75600
O945        O  0.63985798  0.39326278  0.38558974    -0.75700
O946        O  0.66555358  0.37780373  0.44392667    -0.75700
O947        O  0.63928522  0.40548874  0.45959893    -0.75600
O948        O  0.61358009  0.42204609  0.39980950    -0.75600
O949        O  0.58156556  0.37000532  0.43134535    -0.75600
O950        O  0.66907616  0.45763617  0.42809032    -0.75700
Ni951      Ni  0.65296534  0.38438918  0.41438260     1.25400
Ni952      Ni  0.62476726  0.41462547  0.43034839     1.25400
C953        C  0.69672589  0.45855066  0.41983103     0.86600
C954        C  0.57961757  0.34129871  0.42414927     0.86500
C955        C  0.62377283  0.41098795  0.38288233     0.86600
C956        C  0.65831218  0.39023985  0.46130149     0.86700
O957        O  0.91365535  0.20651867  0.25966327    -0.75600
O958        O  0.82482766  0.11843661  0.25191612    -0.75600
O959        O  0.87373926  0.14810667  0.28509521    -0.75700
O960        O  0.86438000  0.17852464  0.22674967    -0.75700
O961        O  0.89275762  0.15245685  0.21175932    -0.75600
O962        O  0.90477801  0.12373021  0.27161200    -0.75600
O963        O  0.85504422  0.09325588  0.23845417    -0.75600
O964        O  0.94248745  0.18066616  0.24494712    -0.75700
Ni965      Ni  0.86798107  0.16367011  0.25630078     1.25400
Ni966      Ni  0.89965668  0.13648313  0.24106064     1.25400
C967        C  0.94276232  0.20771655  0.25368402     0.86600
C968        C  0.82566167  0.09091037  0.24465278     0.86500
C969        C  0.89138209  0.13200630  0.28820654     0.86600
C970        C  0.87794873  0.17182792  0.20972286     0.86700
O971        O  0.82535410  0.12348565  0.41244160    -0.75600
O972        O  0.91382880  0.21270194  0.41554597    -0.75600
O973        O  0.88078748  0.15988325  0.38452139    -0.75700
O974        O  0.85636121  0.17581964  0.44312065    -0.75700
O975        O  0.88307145  0.14812340  0.45845828    -0.75600
O976        O  0.90794060  0.13183686  0.39885862    -0.75600
O977        O  0.94010748  0.18408669  0.43020059    -0.75600
O978        O  0.85293537  0.09615329  0.42715297    -0.75700
Ni979      Ni  0.86834502  0.16919248  0.41340575     1.25400
Ni980      Ni  0.89715835  0.13928466  0.42927406     1.25400
C981        C  0.82495632  0.09505607  0.41913839     0.86600
C982        C  0.94177717  0.21275694  0.42305946     0.86500
C983        C  0.89680195  0.14204976  0.38190598     0.86600
C984        C  0.86395610  0.16317386  0.46038349     0.86700
C985        C  0.92910652  0.14654335  0.32258571    -0.14500
C986        C  0.89637687  0.12455190  0.31167245     0.07700
C987        C  0.86584671  0.10373379  0.32464316    -0.14500
C988        C  0.86726307  0.10699219  0.34802088    -0.14500
C989        C  0.89919394  0.13119318  0.35884828     0.07700
C990        C  0.93050247  0.14995432  0.34612755    -0.14500
H991        H  0.95269294  0.16374001  0.31282938     0.11600
H992        H  0.84019410  0.08739772  0.31654877     0.11600
H993        H  0.84271046  0.09278402  0.35753337     0.11600
H994        H  0.95517094  0.16939459  0.35413941     0.11600
C995        C  0.72757586  0.02470319  0.41709976    -0.14500
C996        C  0.72957484  0.49326396  0.41815977     0.07700
C997        C  0.76300962  0.49549720  0.41846189    -0.14500
C998        C  0.79404137  0.02876178  0.41848225    -0.14500
C999        C  0.79207648  0.06024553  0.41782173     0.07700
C1000       C  0.75862698  0.05797285  0.41673344    -0.14500
H1001       H  0.70195982  0.52355164  0.41667752     0.11600
H1002       H  0.76513849  0.47161535  0.41933959     0.11600
H1003       H  0.81961369  0.02984420  0.41917085     0.11600
H1004       H  0.75646238  0.08185354  0.41623294     0.11600
C1005       C  0.51293347  0.31045920  0.42361379    -0.14500
C1006       C  0.54442695  0.30837694  0.42397455     0.07700
C1007       C  0.54182860  0.27478629  0.42385107    -0.14500
C1008       C  0.00836385  0.24383036  0.42372717    -0.14500
C1009       C  0.97685355  0.24585982  0.42326667     0.07700
C1010       C  0.97943419  0.27946919  0.42302844    -0.14500
H1011       H  0.51420526  0.33610933  0.42348714     0.11600
H1012       H  0.56563544  0.27244864  0.42409838     0.11600
H1013       H  0.00716579  0.21821914  0.42374279     0.11600
H1014       H  0.95561088  0.28177875  0.42267303     0.11600
C1015       C  0.72811317  0.01890311  0.24487402    -0.14500
C1016       C  0.73042386  0.48757095  0.24552329     0.07700
C1017       C  0.76423571  0.49051822  0.24534126    -0.14500
C1018       C  0.79509940  0.02415103  0.24442763    -0.14500
C1019       C  0.79277105  0.05550182  0.24416719     0.07700
C1020       C  0.75895206  0.05250808  0.24443809    -0.14500
H1021       H  0.70237734  0.51747520  0.24514645     0.11600
H1022       H  0.76680009  0.46686620  0.24580052     0.11600
H1023       H  0.82086883  0.02563417  0.24444085     0.11600
H1024       H  0.75633517  0.07613259  0.24430477     0.11600
C1025       C  0.51319969  0.30499331  0.25556838    -0.14500
C1026       C  0.54472386  0.30304929  0.25682697     0.07700
C1027       C  0.54225545  0.26962266  0.25891054    -0.14500
C1028       C  0.00885028  0.23858576  0.25852490    -0.14500
C1029       C  0.97742686  0.24055232  0.25646781     0.07700
C1030       C  0.97980789  0.27400374  0.25558540    -0.14500
H1031       H  0.51436186  0.33052048  0.25415606     0.11600
H1032       H  0.56610362  0.26741384  0.25993711     0.11600
H1033       H  0.00759733  0.21296905  0.25943683     0.11600
H1034       H  0.95598294  0.27615743  0.25395897     0.11600
C1035       C  0.65186126  0.44569300  0.32483907    -0.14500
C1036       C  0.62304669  0.41998609  0.31221715     0.07700
C1037       C  0.59137917  0.39584379  0.32331659    -0.14500
C1038       C  0.58965439  0.39556919  0.34689341    -0.14500
C1039       C  0.61946549  0.41968758  0.35956183     0.07700
C1040       C  0.64999853  0.44567054  0.34832224    -0.14500
H1041       H  0.67684906  0.46382543  0.31665131     0.11600
H1042       H  0.56929010  0.37505565  0.31390512     0.11600
H1043       H  0.56638289  0.37449717  0.35522929     0.11600
H1044       H  0.67369959  0.46371871  0.35779671     0.11600
C1045       C  0.67461588  0.38473099  0.52391278    -0.14500
C1046       C  0.70756347  0.38526951  0.52367222     0.07700
C1047       C  0.72359162  0.38719711  0.50289843    -0.14500
C1048       C  0.70698301  0.38818252  0.48286224    -0.14500
C1049       C  0.67434889  0.38817822  0.48304125     0.07700
C1050       C  0.65839778  0.38665394  0.50381788    -0.14500
H1051       H  0.66178350  0.38374524  0.53972712     0.11600
H1052       H  0.74895938  0.38791374  0.50213410     0.11600
H1053       H  0.72020514  0.38973743  0.46711126     0.11600
H1054       H  0.63338254  0.38667322  0.50450461     0.11600
C1055       C  0.80532542  0.39261616  0.68094344    -0.14500
C1056       C  0.80064890  0.41881186  0.69176266     0.07700
C1057       C  0.79978157  0.44553638  0.67887703    -0.14500
C1058       C  0.80038809  0.44427633  0.65538792    -0.14500
C1059       C  0.80137920  0.41602661  0.64451602     0.07700
C1060       C  0.80546643  0.39108829  0.65740034    -0.14500
H1061       H  0.80502220  0.37119372  0.69061302     0.11600
H1062       H  0.79521350  0.46535683  0.68688771     0.11600
H1063       H  0.79619229  0.46315981  0.64572556     0.11600
H1064       H  0.80516103  0.36851073  0.64934330     0.11600
C1065       C  0.72982926  0.49115900  0.58753597    -0.14500
C1066       C  0.76112548  0.48909130  0.58729493     0.07700
C1067       C  0.79452785  0.02062881  0.58735064    -0.14500
C1068       C  0.79657834  0.05383541  0.58748992    -0.14500
C1069       C  0.76524063  0.05587341  0.58712126     0.07700
C1070       C  0.73187160  0.02431597  0.58723081    -0.14500
H1071       H  0.70383399  0.46718875  0.58733762     0.11600
H1072       H  0.81906024  0.51959457  0.58722394     0.11600
H1073       H  0.82255510  0.07782942  0.58730182     0.11600
H1074       H  0.70730183  0.02527539  0.58704723     0.11600
C1075       C  0.72773786  0.26924837  0.58179530    -0.14500
C1076       C  0.75869955  0.30290122  0.58160564     0.07700
C1077       C  0.79229582  0.30505880  0.58223295    -0.14500
C1078       C  0.79490931  0.27414796  0.58296517    -0.14500
C1079       C  0.76397419  0.24047733  0.58258588     0.07700
C1080       C  0.73035997  0.23831653  0.58202772    -0.14500
H1081       H  0.70157141  0.26686040  0.58143197     0.11600
H1082       H  0.81663702  0.33074347  0.58241423     0.11600
H1083       H  0.82108975  0.27657831  0.58345378     0.11600
H1084       H  0.70601092  0.21263696  0.58195204     0.11600
C1085       C  0.81744989  0.16761500  0.48295269    -0.14500
C1086       C  0.84839579  0.16446152  0.48238946     0.07700
C1087       C  0.86256665  0.16060721  0.50278903    -0.14500
C1088       C  0.84630261  0.16018902  0.52323851    -0.14500
C1089       C  0.81497182  0.16261378  0.52371772     0.07700
C1090       C  0.80065066  0.16621029  0.50334863    -0.14500
H1091       H  0.80555054  0.17018552  0.46749714     0.11600
H1092       H  0.88612808  0.15786402  0.50292972     0.11600
H1093       H  0.85772218  0.15696180  0.53872025     0.11600
H1094       H  0.77657380  0.16804737  0.50320925     0.11600
C1095       C  0.79345241  0.05137475  0.76003074    -0.14500
C1096       C  0.76216630  0.05357238  0.75988504     0.07700
C1097       C  0.72886468  0.02184870  0.75923833    -0.14500
C1098       C  0.72695001  0.98860208  0.75823797    -0.14500
C1099       C  0.75829481  0.48645140  0.75837922     0.07700
C1100       C  0.79152648  0.01816444  0.75952951    -0.14500
H1101       H  0.81942714  0.07534656  0.76051249     0.11600
H1102       H  0.70427981  0.02277459  0.75892028     0.11600
H1103       H  0.70101124  0.46462124  0.75741187     0.11600
H1104       H  0.81617479  0.51735934  0.75955371     0.11600
C1105       C  0.79443140  0.27189336  0.74784809    -0.14500
C1106       C  0.76278119  0.23882699  0.74857385     0.07700
C1107       C  0.72970911  0.23770622  0.74813022    -0.14500
C1108       C  0.72829657  0.26919753  0.74744549    -0.14500
C1109       C  0.75993860  0.30227592  0.74763767     0.07700
C1110       C  0.79301775  0.30340978  0.74760643    -0.14500
H1111       H  0.82021103  0.27340350  0.74824733     0.11600
H1112       H  0.70490106  0.21244823  0.74855425     0.11600
H1113       H  0.70252044  0.26770002  0.74759208     0.11600
H1114       H  0.81780731  0.32870306  0.74766112     0.11600
C1115       C  0.71883117  0.14870521  0.68211885    -0.14500
C1116       C  0.72377445  0.12273041  0.69315990     0.07700
C1117       C  0.72631996  0.09692722  0.68037648    -0.14500
C1118       C  0.72678920  0.09877131  0.65686933    -0.14500
C1119       C  0.72506238  0.12663055  0.64586339     0.07700
C1120       C  0.71966142  0.15076852  0.65857303    -0.14500
H1121       H  0.71803660  0.16955723  0.69170362     0.11600
H1122       H  0.73124626  0.07738368  0.68857199     0.11600
H1123       H  0.73198166  0.08051780  0.64736471     0.11600
H1124       H  0.71940764  0.17307533  0.65042795     0.11600
C1125       C  0.66355346  0.30391969  0.83404411    -0.14500
C1126       C  0.67676197  0.32240059  0.85437495     0.07700
C1127       C  0.70647782  0.35725942  0.85373191    -0.14500
C1128       C  0.72299370  0.37303791  0.83335385    -0.14500
C1129       C  0.70961281  0.35472541  0.81306232     0.07700
C1130       C  0.67953162  0.32013760  0.81356250    -0.14500
H1131       H  0.64086621  0.27706788  0.83397426     0.11600
H1132       H  0.71755474  0.37216895  0.86911149     0.11600
H1133       H  0.74607180  0.39965094  0.83343539     0.11600
H1134       H  0.66889328  0.30528627  0.79810405     0.11600
C1135       C  0.65355738  0.35807982  0.14954345    -0.14500
C1136       C  0.65189524  0.32467411  0.14921717     0.07700
C1137       C  0.64917804  0.30739056  0.16971569    -0.14500
C1138       C  0.64836996  0.32327527  0.19005990    -0.14500
C1139       C  0.64923245  0.35628141  0.19032758     0.07700
C1140       C  0.65175476  0.37348207  0.16983967    -0.14500
H1141       H  0.65527470  0.37195062  0.13398288     0.11600
H1142       H  0.64769575  0.28166698  0.17001250     0.11600
H1143       H  0.64617800  0.30925767  0.20563302     0.11600
H1144       H  0.65253572  0.39888431  0.16953199     0.11600
C1145       C  0.63912517  0.22915778  0.01280835    -0.14500
C1146       C  0.61998132  0.24087952  0.02582852     0.07700
C1147       C  0.59637728  0.24968242  0.01516143    -0.14500
C1148       C  0.59432356  0.24999214  0.99174718    -0.14500
C1149       C  0.61551097  0.24105477  0.97859896     0.07700
C1150       C  0.63671770  0.22904162  0.98922378    -0.14500
H1151       H  0.65818469  0.22321480  0.02071335     0.11600
H1152       H  0.58195360  0.25949275  0.02493039     0.11600
H1153       H  0.57842163  0.26004248  0.98388465     0.11600
H1154       H  0.65402315  0.22300867  0.97933034     0.11600
C1155       C  0.54300695  0.30546814  0.90715170    -0.14500
C1156       C  0.54535409  0.27447265  0.90959695     0.07700
C1157       C  0.51372091  0.24133871  0.91164570    -0.14500
C1158       C  0.98039431  0.23941719  0.91196018    -0.14500
C1159       C  0.97808284  0.27052545  0.90973779     0.07700
C1160       C  0.00973689  0.30348010  0.90698290    -0.14500
H1161       H  0.56693315  0.33129042  0.90545556     0.11600
H1162       H  0.51481795  0.21701492  0.91368724     0.11600
H1163       H  0.95650789  0.21368158  0.91408155     0.11600
H1164       H  0.00890458  0.32798594  0.90529738     0.11600
C1165       C  0.79683080  0.30864615  0.91953640    -0.14500
C1166       C  0.79582362  0.27596540  0.92313123     0.07700
C1167       C  0.76307058  0.24536637  0.92791443    -0.14500
C1168       C  0.73164774  0.24700565  0.92787249    -0.14500
C1169       C  0.73256916  0.27937217  0.92347107     0.07700
C1170       C  0.76544541  0.31038765  0.91989928    -0.14500
H1171       H  0.82180048  0.33276195  0.91597813     0.11600
H1172       H  0.76153770  0.21991732  0.93083275     0.11600
H1173       H  0.70647379  0.22280077  0.93085070     0.11600
H1174       H  0.76667426  0.33556269  0.91637545     0.11600
C1175       C  0.86175176  0.23584778  0.83545177    -0.14500
C1176       C  0.84463211  0.22289892  0.85612853     0.07700
C1177       C  0.81055396  0.19203430  0.85635615    -0.14500
C1178       C  0.79377378  0.17463370  0.83630916    -0.14500
C1179       C  0.81114308  0.18718233  0.81562665     0.07700
C1180       C  0.84538934  0.21792307  0.81546113    -0.14500
H1181       H  0.88793978  0.25949991  0.83478211     0.11600
H1182       H  0.79656616  0.18165461  0.87209634     0.11600
H1183       H  0.76737158  0.15129484  0.83699962     0.11600
H1184       H  0.85935174  0.22860516  0.79975336     0.11600
C1185       C  0.87625346  0.18898354  0.14704039    -0.14500
C1186       C  0.87805068  0.22247029  0.14692686     0.07700
C1187       C  0.87948135  0.23871280  0.16756228    -0.14500
C1188       C  0.87875937  0.22170550  0.18781330    -0.14500
C1189       C  0.87757314  0.18852759  0.18793012     0.07700
C1190       C  0.87651089  0.17241502  0.16731131    -0.14500
H1191       H  0.87547590  0.17589898  0.13136942     0.11600
H1192       H  0.88099555  0.26444554  0.16804300     0.11600
H1193       H  0.87990807  0.23496048  0.20348572     0.11600
H1194       H  0.87556848  0.14694629  0.16687693     0.11600
C1195       C  0.51771481  0.24406315  0.08127183    -0.14500
C1196       C  0.54922375  0.27728908  0.08312625     0.07700
C1197       C  0.54722926  0.30857247  0.08377014    -0.14500
C1198       C  0.01406251  0.30657793  0.08349764    -0.10900
C1199       C  0.98246299  0.27330523  0.08219622     0.07700
C1200       C  0.98453430  0.24209858  0.08060462    -0.14500
H1201       H  0.51874224  0.21957491  0.08053063     0.11600
H1202       H  0.57119737  0.33442608  0.08522004     0.11600
H1203       H  0.01313141  0.33108927  0.08457402     0.11600
H1204       H  0.96054732  0.21619174  0.07959825     0.11600
C1205       C  0.76767315  0.30815358  0.09089409    -0.14500
C1206       C  0.73414202  0.27701085  0.09110824     0.07700
C1207       C  0.73233949  0.24360955  0.09108730    -0.14500
C1208       C  0.76350125  0.24140042  0.09044034    -0.14500
C1209       C  0.79702494  0.27255444  0.09029231     0.07700
C1210       C  0.79882653  0.30594208  0.09073127    -0.14500
H1211       H  0.76980919  0.33418702  0.09094939     0.11600
H1212       H  0.70677276  0.21912940  0.09112335     0.11600
H1213       H  0.76139442  0.21538329  0.09019803     0.11600
H1214       H  0.82438280  0.33043415  0.09052984     0.11600
C1215       C  0.88775980  0.32047820  0.01198942    -0.14500
C1216       C  0.91024946  0.31252661  0.02478352     0.07700
C1217       C  0.93645470  0.30805693  0.01382295    -0.14500
C1218       C  0.93802029  0.30819898  0.99033785    -0.14500
C1219       C  0.91364493  0.31320638  0.97745113     0.07700
C1220       C  0.88960372  0.32102196  0.98840717    -0.14500
H1221       H  0.86667747  0.32291591  0.02008596     0.11600
H1222       H  0.95340341  0.30094735  0.02338367     0.11600
H1223       H  0.95600717  0.30107665  0.98224919     0.11600
H1224       H  0.86978160  0.32376770  0.97876098     0.11600
O1225       O  0.91922139  0.74403536  0.07658934    -0.75600
O1226       O  0.83009067  0.74318413  0.08140579    -0.75600
O1227       O  0.88224662  0.76448513  0.04989647    -0.75700
O1228       O  0.86736702  0.72111102  0.10764227    -0.75700
O1229       O  0.89486319  0.77466697  0.12390055    -0.75600
O1230       O  0.91123277  0.81892358  0.06505548    -0.75600
O1231       O  0.85907112  0.79751465  0.09661150    -0.75600
O1232       O  0.94679043  0.79791893  0.09250367    -0.75700
Ni1233     Ni  0.87352708  0.74129284  0.07834477     1.25400
Ni1234     Ni  0.90379386  0.79915120  0.09515726     1.25400
C1235       C  0.94773833  0.77152352  0.08372396     0.86600
C1236       C  0.83020779  0.77075345  0.08948034     0.86500
C1237       C  0.90031708  0.79839382  0.04777752     0.86600
C1238       C  0.87983377  0.74043677  0.12522097     0.86700
O1239       O  0.82955658  0.74611100  0.92767950    -0.75600
O1240       O  0.91583963  0.74213931  0.91953061    -0.75600
O1241       O  0.88887875  0.76500155  0.95238846    -0.75700
O1242       O  0.85486262  0.72165105  0.89520378    -0.75700
O1243       O  0.88172414  0.77505815  0.87864469    -0.75600
O1244       O  0.91350991  0.81938908  0.93714889    -0.75600
O1245       O  0.94156238  0.79664895  0.90454002    -0.75600
O1246       O  0.85552740  0.79948621  0.91107273    -0.75700
Ni1247     Ni  0.87150317  0.74181865  0.92422669     1.25400
Ni1248     Ni  0.89914559  0.79954915  0.90720169     1.25400
C1249       C  0.82853647  0.77368935  0.92065405     0.86600
C1250       C  0.94332157  0.76941868  0.91117358     0.86500
C1251       C  0.90551921  0.79892712  0.95442575     0.86600
C1252       C  0.86163244  0.74091646  0.87758163     0.86700
O1253       O  0.61250413  0.80680745  0.07888204    -0.75600
O1254       O  0.70123125  0.80692267  0.08327071    -0.75600
O1255       O  0.64917699  0.78742632  0.05169920    -0.75700
O1256       O  0.66410498  0.82791297  0.11015900    -0.75700
O1257       O  0.63592693  0.77358055  0.12543165    -0.75600
O1258       O  0.62020576  0.73222663  0.06583521    -0.75600
O1259       O  0.67211618  0.75200528  0.09769477    -0.75600
O1260       O  0.58439507  0.75196688  0.09355735    -0.75700
Ni1261     Ni  0.65799363  0.80919664  0.08052112     1.25400
Ni1262     Ni  0.62737493  0.75051257  0.09626287     1.25400
C1263       C  0.58377843  0.77890363  0.08524913     0.86600
C1264       C  0.70100832  0.77895829  0.09080354     0.86500
C1265       C  0.63090298  0.75365651  0.04896710     0.86600
C1266       C  0.65104930  0.80773877  0.12734722     0.86700
O1267       O  0.69697009  0.80724916  0.92656994    -0.75600
O1268       O  0.60776177  0.80531402  0.91837907    -0.75600
O1269       O  0.63822181  0.78741042  0.95199554    -0.75700
O1270       O  0.66756361  0.82634559  0.89331576    -0.75700
O1271       O  0.64254061  0.77164587  0.87876077    -0.75600
O1272       O  0.61497200  0.73198764  0.93867550    -0.75600
O1273       O  0.58329149  0.74969590  0.90531915    -0.75600
O1274       O  0.67223048  0.75230099  0.91227117    -0.75700
Ni1275     Ni  0.65335763  0.80850206  0.92303426     1.25400
Ni1276     Ni  0.62725180  0.74944898  0.90815671     1.25400
C1277       C  0.69900880  0.77978411  0.92077685     0.86600
C1278       C  0.58058105  0.77674183  0.91100091     0.86500
C1279       C  0.62281977  0.75371115  0.95519399     0.86600
C1280       C  0.66104175  0.80577562  0.87642332     0.86700
O1281       O  0.79142367  0.70411332  0.74440260    -0.75600
O1282       O  0.79197961  0.61609147  0.75151535    -0.75600
O1283       O  0.77141506  0.64566429  0.71882024    -0.75700
O1284       O  0.81339016  0.67606748  0.77677058    -0.75700
O1285       O  0.75942251  0.65048758  0.79244217    -0.75600
O1286       O  0.71658850  0.62113660  0.73333263    -0.75600
O1287       O  0.73715649  0.59091939  0.76596551    -0.75600
O1288       O  0.73716808  0.67856203  0.75977686    -0.75700
Ni1289     Ni  0.79395767  0.66120364  0.74738595     1.25400
Ni1290     Ni  0.73565739  0.63420508  0.76352585     1.25400
C1291       C  0.76393861  0.70559812  0.75092783     0.86600
C1292       C  0.76405959  0.58865932  0.75929620     0.86500
C1293       C  0.73751744  0.62957338  0.71633588     0.86600
C1294       C  0.79363822  0.66986662  0.79404382     0.86700
O1295       O  0.79422581  0.61879767  0.59333752    -0.75600
O1296       O  0.79411422  0.70758611  0.59033134    -0.75600
O1297       O  0.77332072  0.65418444  0.62092317    -0.75700
O1298       O  0.81660780  0.67184941  0.56311400    -0.75700
O1299       O  0.76290256  0.64486380  0.54679193    -0.75600
O1300       O  0.71881729  0.62553064  0.60560840    -0.75600
O1301       O  0.73968295  0.67892675  0.57503726    -0.75600
O1302       O  0.74023037  0.59154699  0.57732949    -0.75700
Ni1303     Ni  0.79649609  0.66428823  0.59246587     1.25400
Ni1304     Ni  0.73852249  0.63440702  0.57554489     1.25400
C1305       C  0.76683002  0.59050095  0.58589860     0.86600
C1306       C  0.76625913  0.70752586  0.58261403     0.86500
C1307       C  0.73936951  0.63612881  0.62293300     0.86600
C1308       C  0.79715678  0.66005319  0.54548624     0.86700
O1309       O  0.73139697  0.83684543  0.74201499    -0.75600
O1310       O  0.72944135  0.92426136  0.74867540    -0.75600
O1311       O  0.75187510  0.89561125  0.71646732    -0.75700
O1312       O  0.70780814  0.86388819  0.77379294    -0.75700
O1313       O  0.76139953  0.89044802  0.79028535    -0.75600
O1314       O  0.80616728  0.92005498  0.73200421    -0.75600
O1315       O  0.78395477  0.94962284  0.76382590    -0.75600
O1316       O  0.78499375  0.86254510  0.75853231    -0.75700
Ni1317     Ni  0.72822169  0.87941559  0.74466875     1.25400
Ni1318     Ni  0.78601608  0.90671270  0.76180629     1.25400
C1319       C  0.75867295  0.83548694  0.74931999     0.86600
C1320       C  0.75691907  0.95163816  0.75698880     0.86500
C1321       C  0.78588249  0.91173867  0.71462134     0.86600
C1322       C  0.72720712  0.87085751  0.79141604     0.86700
O1323       O  0.73169950  0.92619034  0.59345832    -0.75600
O1324       O  0.72921298  0.83632302  0.58916279    -0.75600
O1325       O  0.75236157  0.88921190  0.62003754    -0.75700
O1326       O  0.70689723  0.87372845  0.56286648    -0.75700
O1327       O  0.76001229  0.90028606  0.54603836    -0.75600
O1328       O  0.80635479  0.91718130  0.60420341    -0.75600
O1329       O  0.78306361  0.86425811  0.57325362    -0.75600
O1330       O  0.78518480  0.95288255  0.57698696    -0.75700
Ni1331     Ni  0.72813077  0.88019142  0.59192588     1.25400
Ni1332     Ni  0.78550348  0.90938780  0.57442553     1.25400
C1333       C  0.75915779  0.95432866  0.58595245     0.86600
C1334       C  0.75657239  0.83592135  0.58116077     0.86500
C1335       C  0.78639165  0.90666727  0.62171086     0.86600
C1336       C  0.72577907  0.88601123  0.54511588     0.86700
O1337       O  0.60841540  0.83702651  0.26161319    -0.75600
O1338       O  0.69783418  0.92499787  0.25479440    -0.75600
O1339       O  0.64716994  0.89573651  0.28718942    -0.75700
O1340       O  0.65926064  0.86475606  0.22964988    -0.75700
O1341       O  0.63190764  0.89107496  0.21327838    -0.75600
O1342       O  0.61701914  0.92008126  0.27195917    -0.75600
O1343       O  0.66823182  0.95005179  0.23986244    -0.75600
O1344       O  0.58054775  0.86287102  0.24526915    -0.75700
Ni1345     Ni  0.65431993  0.87983474  0.25884538     1.25400
Ni1346     Ni  0.62354913  0.90701398  0.24195025     1.25400
C1347       C  0.57967626  0.83581727  0.25458070     0.86600
C1348       C  0.69738994  0.95235628  0.24667346     0.86500
C1349       C  0.62945956  0.91197728  0.28924055     0.86600
C1350       C  0.64693163  0.87186272  0.21203347     0.86700
O1351       O  0.69602515  0.93002673  0.41314303    -0.75600
O1352       O  0.60742387  0.84112500  0.41676633    -0.75600
O1353       O  0.63985479  0.89326375  0.38558892    -0.75700
O1354       O  0.66555175  0.87780463  0.44392545    -0.75700
O1355       O  0.63928333  0.90548932  0.45959807    -0.75600
O1356       O  0.61357736  0.92204720  0.39980918    -0.75600
O1357       O  0.58156342  0.87000618  0.43134485    -0.75600
O1358       O  0.66907412  0.95763710  0.42808967    -0.75700
Ni1359     Ni  0.65296291  0.88439014  0.41438153     1.25400
Ni1360     Ni  0.62476511  0.91462637  0.43034781     1.25400
C1361       C  0.69672374  0.95855160  0.41983016     0.86600
C1362       C  0.57961538  0.84129955  0.42414876     0.86500
C1363       C  0.62376951  0.91098887  0.38288184     0.86600
C1364       C  0.65831018  0.89024032  0.46130042     0.86700
O1365       O  0.91365827  0.70651945  0.25966245    -0.75600
O1366       O  0.82483147  0.61843682  0.25191445    -0.75600
O1367       O  0.87374109  0.64810785  0.28509460    -0.75700
O1368       O  0.86438478  0.67852420  0.22674799    -0.75700
O1369       O  0.89276364  0.65245664  0.21175912    -0.75600
O1370       O  0.90478111  0.62373165  0.27161318    -0.75600
O1371       O  0.85504905  0.59325610  0.23845422    -0.75600
O1372       O  0.94249161  0.68066710  0.24494793    -0.75700
Ni1373     Ni  0.86798440  0.66367052  0.25629955     1.25400
Ni1374     Ni  0.89966128  0.63648370  0.24106119     1.25400
C1375       C  0.94276569  0.70771762  0.25368400     0.86600
C1376       C  0.82566599  0.59091060  0.24465163     0.86500
C1377       C  0.89138398  0.63200780  0.28820705     0.86600
C1378       C  0.87795458  0.67182744  0.20972176     0.86700
O1379       O  0.82535425  0.62348569  0.41244248    -0.75600
O1380       O  0.91382851  0.71270260  0.41554806    -0.75600
O1381       O  0.88078803  0.65988462  0.38452289    -0.75700
O1382       O  0.85636001  0.67581910  0.44312202    -0.75700
O1383       O  0.88307024  0.64812296  0.45845978    -0.75600
O1384       O  0.90794140  0.63183838  0.39885991    -0.75600
O1385       O  0.94010713  0.68408735  0.43020273    -0.75600
O1386       O  0.85293585  0.59615371  0.42715386    -0.75700
Ni1387     Ni  0.86834485  0.66919289  0.41340722     1.25400
Ni1388     Ni  0.89715832  0.63928523  0.42927552     1.25400
C1389       C  0.82495681  0.59505616  0.41913908     0.86600
C1390       C  0.94177684  0.71275765  0.42306175     0.86500
C1391       C  0.89680256  0.64205125  0.38190729     0.86600
C1392       C  0.86395440  0.66317295  0.46038486     0.86700
C1393       C  0.92910714  0.64654093  0.32258705    -0.14500
C1394       C  0.89637675  0.62455327  0.31167343     0.07700
C1395       C  0.86584535  0.60373869  0.32464390    -0.14500
C1396       C  0.86726154  0.60699694  0.34802160    -0.14500
C1397       C  0.89919355  0.63119428  0.35884942     0.07700
C1398       C  0.93050298  0.64995172  0.34612898    -0.14500
H1399       H  0.95269477  0.66373491  0.31283096     0.11600
H1400       H  0.84019230  0.58740547  0.31654929     0.11600
H1401       H  0.84270837  0.59279161  0.35753380     0.11600
H1402       H  0.95517251  0.66938923  0.35414111     0.11600
C1403       C  0.72757698  0.52470186  0.41709845    -0.14500
C1404       C  0.72957303  0.99326482  0.41815919     0.07700
C1405       C  0.76300759  0.99549739  0.41845966    -0.14500
C1406       C  0.79404298  0.52876188  0.41848436    -0.14500
C1407       C  0.79207742  0.56024527  0.41782212     0.07700
C1408       C  0.75862771  0.55797182  0.41673204    -0.14500
H1409       H  0.70195890  0.02355360  0.41668018     0.11600
H1410       H  0.76513598  0.97161527  0.41933589     0.11600
H1411       H  0.81961537  0.52984484  0.41917434     0.11600
H1412       H  0.75646254  0.58185217  0.41623014     0.11600
C1413       C  0.51293133  0.81045985  0.42361344    -0.14500
C1414       C  0.54442484  0.80837768  0.42397443     0.07700
C1415       C  0.54182657  0.77478706  0.42385166    -0.14500
C1416       C  0.00836356  0.74383095  0.42373074    -0.14500
C1417       C  0.97685332  0.74586052  0.42326917     0.07700
C1418       C  0.97943418  0.77947000  0.42302966    -0.14500
H1419       H  0.51420307  0.83610992  0.42348627     0.11600
H1420       H  0.56563344  0.77244950  0.42409921     0.11600
H1421       H  0.00716541  0.71821959  0.42374744     0.11600
H1422       H  0.95561101  0.78177968  0.42267344     0.11600
C1423       C  0.72811712  0.51890414  0.24487120    -0.14500
C1424       C  0.73042047  0.98757020  0.24552573     0.07700
C1425       C  0.76423250  0.99051796  0.24534353    -0.14500
C1426       C  0.79510297  0.52415110  0.24442561    -0.14500
C1427       C  0.79277515  0.55550217  0.24416521     0.07700
C1428       C  0.75895634  0.55250888  0.24443548    -0.14500
H1429       H  0.70237317  0.01747371  0.24514952     0.11600
H1430       H  0.76679726  0.96686615  0.24580259     0.11600
H1431       H  0.82087217  0.52563383  0.24443915     0.11600
H1432       H  0.75633980  0.57613358  0.24430206     0.11600
C1433       C  0.51319703  0.80499037  0.25556639    -0.14500
C1434       C  0.54472144  0.80304693  0.25682548     0.07700
C1435       C  0.54225356  0.76962048  0.25890877    -0.14500
C1436       C  0.00885366  0.73858822  0.25852530    -0.14500
C1437       C  0.97742985  0.74055392  0.25646771     0.07700
C1438       C  0.97981012  0.77400501  0.25558477    -0.14500
H1439       H  0.51435878  0.83051746  0.25415422     0.11600
H1440       H  0.56610191  0.76741211  0.25993564     0.11600
H1441       H  0.00760133  0.71297175  0.25943761     0.11600
H1442       H  0.95598486  0.77615807  0.25395790     0.11600
C1443       C  0.65185603  0.94569295  0.32483843    -0.14500
C1444       C  0.62304156  0.91998510  0.31221691     0.07700
C1445       C  0.59137436  0.89584283  0.32331662    -0.14500
C1446       C  0.58964998  0.89556902  0.34689343    -0.14500
C1447       C  0.61946119  0.91968813  0.35956149     0.07700
C1448       C  0.64999371  0.94567124  0.34832158    -0.14500
H1449       H  0.67684357  0.96382541  0.31665042     0.11600
H1450       H  0.56928535  0.87505405  0.31390542     0.11600
H1451       H  0.56637888  0.87449696  0.35522959     0.11600
H1452       H  0.67369485  0.96372000  0.35779580     0.11600
C1453       C  0.67461255  0.88473158  0.52391184    -0.14500
C1454       C  0.70755917  0.88526816  0.52367163     0.07700
C1455       C  0.72358709  0.88719413  0.50289800    -0.14500
C1456       C  0.70697919  0.88817997  0.48286159    -0.14500
C1457       C  0.67434611  0.88817777  0.48304026     0.07700
C1458       C  0.65839525  0.88665498  0.50381673    -0.14500
H1459       H  0.66178045  0.88374710  0.53972602     0.11600
H1460       H  0.74895411  0.88790917  0.50213397     0.11600
H1461       H  0.72020111  0.88973365  0.46711073     0.11600
H1462       H  0.63338075  0.88667588  0.50450320     0.11600
C1463       C  0.80532013  0.89261187  0.68094322    -0.14500
C1464       C  0.80064601  0.91880902  0.69176250     0.07700
C1465       C  0.79977952  0.94553396  0.67887683    -0.14500
C1466       C  0.80038446  0.94427298  0.65538770    -0.14500
C1467       C  0.80137326  0.91602203  0.64451585     0.07700
C1468       C  0.80545962  0.89108314  0.65740012    -0.14500
H1469       H  0.80501612  0.87118907  0.69061284     0.11600
H1470       H  0.79521315  0.96535543  0.68688756     0.11600
H1471       H  0.79618939  0.96315701  0.64572537     0.11600
H1472       H  0.80515255  0.86850474  0.64934313     0.11600
C1473       C  0.72982815  0.99115962  0.58753782    -0.14500
C1474       C  0.76112349  0.98909035  0.58729548     0.07700
C1475       C  0.79452912  0.52063050  0.58735095    -0.14500
C1476       C  0.79657809  0.55383641  0.58749012    -0.14500
C1477       C  0.76523953  0.55587287  0.58712047     0.07700
C1478       C  0.73187119  0.52431464  0.58722886    -0.14500
H1479       H  0.70383231  0.96719001  0.58734028     0.11600
H1480       H  0.81905828  0.01959174  0.58722273     0.11600
H1481       H  0.82255428  0.57783100  0.58730287     0.11600
H1482       H  0.70730078  0.52527284  0.58704441     0.11600
C1483       C  0.72772981  0.76924428  0.58179559    -0.14500
C1484       C  0.75869146  0.80289721  0.58160590     0.07700
C1485       C  0.79228774  0.80505489  0.58223367    -0.14500
C1486       C  0.79490139  0.77414420  0.58296624    -0.14500
C1487       C  0.76396642  0.74047350  0.58258688     0.07700
C1488       C  0.73035209  0.73831247  0.58202837    -0.14500
H1489       H  0.70156334  0.76685625  0.58143196     0.11600
H1490       H  0.81662896  0.83073961  0.58241500     0.11600
H1491       H  0.82108186  0.77657474  0.58345512     0.11600
H1492       H  0.70600315  0.71263280  0.58195261     0.11600
C1493       C  0.81744596  0.66761161  0.48295320    -0.14500
C1494       C  0.84839286  0.66445981  0.48239058     0.07700
C1495       C  0.86256388  0.66060702  0.50279050    -0.14500
C1496       C  0.84629917  0.66018896  0.52323970    -0.14500
C1497       C  0.81496754  0.66261229  0.52371832     0.07700
C1498       C  0.80064607  0.66620699  0.50334887    -0.14500
H1499       H  0.80554641  0.67018088  0.46749735     0.11600
H1500       H  0.88612605  0.65786514  0.50293169     0.11600
H1501       H  0.85771901  0.65696305  0.53872171     0.11600
H1502       H  0.77656857  0.66804283  0.50320900     0.11600
C1503       C  0.79345466  0.55137590  0.76003212    -0.14500
C1504       C  0.76216842  0.55357325  0.75988539     0.07700
C1505       C  0.72886694  0.52184956  0.75923768    -0.14500
C1506       C  0.72695252  0.48860312  0.75823739    -0.14500
C1507       C  0.75829221  0.98645014  0.75837875     0.07700
C1508       C  0.79152896  0.51816571  0.75953094    -0.14500
H1509       H  0.81942928  0.57534780  0.76051466     0.11600
H1510       H  0.70428200  0.52277534  0.75891878     0.11600
H1511       H  0.70100860  0.96462019  0.75741326     0.11600
H1512       H  0.81617228  0.01735796  0.75955147     0.11600
C1513       C  0.79443048  0.77189296  0.74784717    -0.14500
C1514       C  0.76278059  0.73882637  0.74857471     0.07700
C1515       C  0.72970827  0.73770515  0.74813274    -0.14500
C1516       C  0.72829516  0.76919614  0.74744779    -0.14500
C1517       C  0.75993695  0.80227479  0.74763810     0.07700
C1518       C  0.79301630  0.80340911  0.74760531    -0.14500
H1519       H  0.82021025  0.77340348  0.74824509     0.11600
H1520       H  0.70490033  0.71244696  0.74855819     0.11600
H1521       H  0.70251896  0.76769833  0.74759568     0.11600
H1522       H  0.81780578  0.82870274  0.74765857     0.11600
C1523       C  0.71882170  0.64869535  0.68211958    -0.14500
C1524       C  0.72377424  0.62272642  0.69316073     0.07700
C1525       C  0.72632705  0.59692730  0.68037746    -0.14500
C1526       C  0.72679456  0.59877025  0.65687033    -0.14500
C1527       C  0.72505865  0.62662436  0.64586414     0.07700
C1528       C  0.71965014  0.65075758  0.65857365    -0.14500
H1529       H  0.71802123  0.66954439  0.69170422     0.11600
H1530       H  0.73126020  0.57738831  0.68857302     0.11600
H1531       H  0.73199276  0.58052064  0.64736585     0.11600
H1532       H  0.71938932  0.67306061  0.65042838     0.11600
C1533       C  0.66354651  0.80392095  0.83404381    -0.14500
C1534       C  0.67675864  0.82239980  0.85437491     0.07700
C1535       C  0.70647828  0.85725629  0.85373216    -0.14500
C1536       C  0.72299424  0.87303453  0.83335410    -0.14500
C1537       C  0.70960980  0.85472425  0.81306226     0.07700
C1538       C  0.67952488  0.82013876  0.81356220    -0.14500
H1539       H  0.64085617  0.77707093  0.83397377     0.11600
H1540       H  0.71755804  0.87216410  0.86911201     0.11600
H1541       H  0.74607522  0.89964563  0.83343590     0.11600
H1542       H  0.66888363  0.80528904  0.79810354     0.11600
C1543       C  0.65355868  0.85807984  0.14954470    -0.14500
C1544       C  0.65189554  0.82467369  0.14921836     0.07700
C1545       C  0.64917785  0.80738981  0.16971683    -0.14500
C1546       C  0.64836994  0.82327459  0.19006107    -0.14500
C1547       C  0.64923304  0.85628101  0.19032875     0.07700
C1548       C  0.65175617  0.87348209  0.16984089    -0.14500
H1549       H  0.65527650  0.87195093  0.13398415     0.11600
H1550       H  0.64769491  0.78166597  0.17001355     0.11600
H1551       H  0.64617739  0.80925666  0.20563424     0.11600
H1552       H  0.65253764  0.89888464  0.16953324     0.11600
C1553       C  0.63911076  0.72914908  0.01280888    -0.14500
C1554       C  0.61997719  0.74088294  0.02582906     0.07700
C1555       C  0.59638154  0.74969732  0.01516214    -0.14500
C1556       C  0.59432719  0.75000675  0.99174803    -0.14500
C1557       C  0.61550560  0.74105783  0.97859961     0.07700
C1558       C  0.63670265  0.72903284  0.98922425    -0.14500
H1559       H  0.65816356  0.72319649  0.02071378     0.11600
H1560       H  0.58196544  0.75951632  0.02493114     0.11600
H1561       H  0.57843256  0.76006565  0.98388565     0.11600
H1562       H  0.65400106  0.72299036  0.97933063     0.11600
C1563       C  0.54300463  0.80546992  0.90715226    -0.14500
C1564       C  0.54535180  0.77447478  0.90959949     0.07700
C1565       C  0.51371896  0.74134137  0.91165164    -0.14500
C1566       C  0.98039224  0.73941887  0.91196518    -0.14500
C1567       C  0.97808016  0.77052666  0.90974193     0.07700
C1568       C  0.00973383  0.80348151  0.90698647    -0.14500
H1569       H  0.56693070  0.83129175  0.90545359     0.11600
H1570       H  0.51481623  0.71701796  0.91369491     0.11600
H1571       H  0.95650604  0.71368310  0.91408709     0.11600
H1572       H  0.00890099  0.82798695  0.90530038     0.11600
C1573       C  0.79682687  0.80864497  0.91953706    -0.14500
C1574       C  0.79581907  0.77596358  0.92313003     0.07700
C1575       C  0.76306557  0.74536395  0.92791135    -0.14500
C1576       C  0.73164295  0.74700353  0.92786956    -0.14500
C1577       C  0.73256501  0.77937086  0.92347016     0.07700
C1578       C  0.76544166  0.81038673  0.91990009    -0.14500
H1579       H  0.82179705  0.83276125  0.91598031     0.11600
H1580       H  0.76153230  0.71991443  0.93082818     0.11600
H1581       H  0.70646865  0.72279824  0.93084641     0.11600
H1582       H  0.76667101  0.83556238  0.91637785     0.11600
C1583       C  0.86175171  0.73584628  0.83545314    -0.14500
C1584       C  0.84463201  0.72289626  0.85612975     0.07700
C1585       C  0.81055456  0.69203069  0.85635704    -0.14500
C1586       C  0.79377490  0.67463067  0.83630982    -0.14500
C1587       C  0.81114403  0.68718085  0.81562742     0.07700
C1588       C  0.84538985  0.71792216  0.81546226    -0.14500
H1589       H  0.88793925  0.75949919  0.83478372     0.11600
H1590       H  0.79656677  0.68165008  0.87209708     0.11600
H1591       H  0.76737305  0.65129116  0.83700000     0.11600
H1592       H  0.85935211  0.72860528  0.79975462     0.11600
C1593       C  0.87625926  0.68898269  0.14703906    -0.14500
C1594       C  0.87805590  0.72246921  0.14692565     0.07700
C1595       C  0.87948733  0.73871193  0.16756109    -0.14500
C1596       C  0.87876619  0.72170501  0.18781202    -0.14500
C1597       C  0.87757992  0.68852709  0.18792882     0.07700
C1598       C  0.87651744  0.67241442  0.16730999    -0.14500
H1599       H  0.87548121  0.67589808  0.13136802     0.11600
H1600       H  0.88100122  0.76444460  0.16804191     0.11600
H1601       H  0.87991515  0.73496011  0.20348441     0.11600
H1602       H  0.87557503  0.64694564  0.16687561     0.11600
C1603       C  0.51771602  0.74406712  0.08126812    -0.14500
C1604       C  0.54922488  0.77729286  0.08312411     0.07700
C1605       C  0.54723048  0.80857635  0.08376710    -0.14500
C1606       C  0.01406314  0.80658075  0.08349446    -0.10900
C1607       C  0.98246381  0.77330796  0.08219268     0.07700
C1608       C  0.98453554  0.74210148  0.08060138    -0.14500
H1609       H  0.51874337  0.71957888  0.08052733     0.11600
H1610       H  0.57119850  0.83442984  0.08521792     0.11600
H1611       H  0.01313174  0.83109201  0.08457060     0.11600
H1612       H  0.96054886  0.71619468  0.07959475     0.11600
C1613       C  0.76767129  0.80815065  0.09089722    -0.14500
C1614       C  0.73414001  0.77700804  0.09111038     0.07700
C1615       C  0.73233736  0.74360667  0.09108914    -0.14500
C1616       C  0.76349919  0.74139744  0.09044256    -0.14500
C1617       C  0.79702304  0.77255143  0.09029527     0.07700
C1618       C  0.79882460  0.80593903  0.09073479    -0.14500
H1619       H  0.76980749  0.83418411  0.09095283     0.11600
H1620       H  0.70677052  0.71912659  0.09112451     0.11600
H1621       H  0.76139232  0.71538032  0.09019974     0.11600
H1622       H  0.82438091  0.83043116  0.09053390     0.11600
C1623       C  0.88774123  0.82046714  0.01198996    -0.14500
C1624       C  0.91024077  0.81252919  0.02478399     0.07700
C1625       C  0.93645427  0.80807291  0.01382334    -0.14500
C1626       C  0.93801932  0.80821468  0.99033814    -0.14500
C1627       C  0.91363515  0.81320863  0.97745166     0.07700
C1628       C  0.88958459  0.82101084  0.98840781    -0.14500
H1629       H  0.86665267  0.82289409  0.02008659     0.11600
H1630       H  0.95341062  0.80097340  0.02338405     0.11600
H1631       H  0.95601353  0.80110229  0.98224936     0.11600
H1632       H  0.86975597  0.82374589  0.97876179     0.11600
loop_ 
_geom_bond_atom_site_label_1 
_geom_bond_atom_site_label_2 
_geom_bond_distance 
_geom_bond_site_symmetry_2 
_ccdc_geom_bond_type 
O1           Ni9   1.922       .  S
O1           C11   1.283       .  A
O2           Ni9   1.929       .  S
O2           C12   1.285       .  A
O3           Ni9   1.904       .  S
O3           C13   1.278       .  A
O4           Ni9   1.905       .  S
O4           C14   1.278       .  A
O5          Ni10   1.944       .  S
O5           C14   1.288       .  A
O6          Ni10   1.939       .  S
O6           C13   1.284       .  A
O7          Ni10   1.901       .  S
O7           C12   1.277       .  A
O8          Ni10   1.893       .  S
O8           C11   1.276       .  A
Ni9         Ni10   2.389       .  S
C11         C383   1.467       .  S
C12         C393   1.476       .  S
C13         C400   1.471       .  S
C14         C370   1.487       .  S
O15         Ni23   1.924       .  S
O15          C25   1.284       .  A
O16         Ni23   1.931       .  S
O16          C26   1.285       .  A
O17         Ni23   1.903       .  S
O17          C27   1.277       .  A
O18         Ni23   1.905       .  S
O18          C28   1.277       .  A
O19         Ni24   1.943       .  S
O19          C28   1.288       .  A
O20         Ni24   1.939       .  S
O20          C27   1.285       .  A
O21         Ni24   1.906       .  S
O21          C26   1.279       .  A
O22         Ni24   1.899       .  S
O22          C25   1.277       .  A
Ni23        Ni24   2.388       .  S
C25         C350   1.474       .  S
C26         C343   1.482       .  S
C27         C403   1.471       .  S
C28         C360   1.483       .  S
O29         Ni37   1.918       .  S
O29          C39   1.283       .  A
O30         Ni37   1.926       .  S
O30          C40   1.284       .  A
O31         Ni37   1.901       .  S
O31          C41   1.277       .  A
O32         Ni37   1.903       .  S
O32          C42   1.277       .  A
O33         Ni38   1.944       .  S
O33          C42   1.288       .  A
O34         Ni38   1.938       .  S
O34          C41   1.284       .  A
O35         Ni38   1.904       .  S
O35          C40   1.278       .  A
O36         Ni38   1.896       .  S
O36          C39   1.277       .  A
Ni37        Ni38   2.390       .  S
C39         C380   1.465       .  S
C40         C390   1.476       .  S
C41         C330   1.470       .  S
C42         C320   1.486       .  S
O43         Ni51   1.923       .  S
O43          C53   1.283       .  A
O44         Ni51   1.924       .  S
O44          C54   1.284       .  A
O45         Ni51   1.905       .  S
O45          C55   1.278       .  A
O46         Ni51   1.903       .  S
O46          C56   1.278       .  A
O47         Ni52   1.944       .  S
O47          C56   1.288       .  A
O48         Ni52   1.935       .  S
O48          C55   1.284       .  A
O49         Ni52   1.912       .  S
O49          C54   1.279       .  A
O50         Ni52   1.900       .  S
O50          C53   1.278       .  A
Ni51        Ni52   2.389       .  S
C53         C353   1.467       .  S
C54         C340   1.478       .  S
C55         C333   1.471       .  S
C56         C310   1.487       .  S
O57         Ni65   1.921       .  S
O57          C67   1.283       .  A
O58         Ni65   1.925       .  S
O58          C68   1.284       .  A
O59         Ni65   1.904       .  S
O59          C69   1.278       .  A
O60         Ni65   1.904       .  S
O60          C70   1.278       .  A
O61         Ni66   1.943       .  S
O61          C70   1.288       .  A
O62         Ni66   1.936       .  S
O62          C69   1.284       .  A
O63         Ni66   1.911       .  S
O63          C68   1.279       .  A
O64         Ni66   1.900       .  S
O64          C67   1.278       .  A
Ni65        Ni66   2.389       .  S
C67         C290   1.469       .  S
C68         C280   1.479       .  S
C69         C300   1.469       .  S
C70         C363   1.487       .  S
O71         Ni79   1.921       .  S
O71          C81   1.283       .  A
O72         Ni79   1.930       .  S
O72          C82   1.285       .  A
O73         Ni79   1.905       .  S
O73          C83   1.278       .  A
O74         Ni79   1.906       .  S
O74          C84   1.278       .  A
O75         Ni80   1.942       .  S
O75          C84   1.288       .  A
O76         Ni80   1.937       .  S
O76          C83   1.284       .  A
O77         Ni80   1.902       .  S
O77          C82   1.277       .  A
O78         Ni80   1.895       .  S
O78          C81   1.277       .  A
Ni79        Ni80   2.390       .  S
C81         C253   1.467       .  S
C82         C263   1.477       .  S
C83         C303   1.470       .  S
C84         C273   1.484       .  S
O85         Ni93   1.921       .  S
O85          C95   1.283       .  A
O86         Ni93   1.930       .  S
O86          C96   1.285       .  A
O87         Ni93   1.908       .  S
O87          C97   1.279       .  A
O88         Ni93   1.908       .  S
O88          C98   1.278       .  A
O89         Ni94   1.938       .  S
O89          C98   1.287       .  A
O90         Ni94   1.933       .  S
O90          C97   1.283       .  A
O91         Ni94   1.907       .  S
O91          C96   1.279       .  A
O92         Ni94   1.900       .  S
O92          C95   1.278       .  A
Ni93        Ni94   2.389       .  S
C95         C293   1.469       .  S
C96         C283   1.480       .  S
C97         C240   1.469       .  S
C98         C313   1.481       .  S
O99        Ni107   1.920       .  S
O99         C109   1.283       .  A
O100       Ni107   1.929       .  S
O100        C110   1.285       .  A
O101       Ni107   1.904       .  S
O101        C111   1.278       .  A
O102       Ni107   1.908       .  S
O102        C112   1.278       .  A
O103       Ni108   1.942       .  S
O103        C112   1.288       .  A
O104       Ni108   1.936       .  S
O104        C111   1.284       .  A
O105       Ni108   1.903       .  S
O105        C110   1.278       .  A
O106       Ni108   1.895       .  S
O106        C109   1.276       .  A
Ni107      Ni108   2.390       .  S
C109        C250   1.466       .  S
C110        C260   1.477       .  S
C111        C243   1.468       .  S
C112        C230   1.488       .  S
O113       Ni121   1.929       .  S
O113        C123   1.285       .  A
O114       Ni121   1.934       .  S
O114        C124   1.286       .  A
O115       Ni121   1.906       .  S
O115        C125   1.278       .  A
O116       Ni121   1.906       .  S
O116        C126   1.278       .  A
O117       Ni122   1.943       .  S
O117        C126   1.288       .  A
O118       Ni122   1.937       .  S
O118        C125   1.284       .  A
O119       Ni122   1.902       .  S
O119        C124   1.278       .  A
O120       Ni122   1.896       .  S
O120        C123   1.277       .  A
Ni121      Ni122   2.388       .  S
C123        C210   1.473       .  S
C124        C200   1.480       .  S
C125        C220   1.472       .  S
C126        C323   1.484       .  S
O127       Ni135   1.922       .  S
O127        C137   1.284       .  A
O128       Ni135   1.928       .  S
O128        C138   1.285       .  A
O129       Ni135   1.898       .  S
O129        C139   1.276       .  A
O130       Ni135   1.899       .  S
O130        C140   1.276       .  A
O131       Ni136   1.952       .  S
O131        C140   1.289       .  A
O132       Ni136   1.944       .  S
O132        C139   1.286       .  A
O133       Ni136   1.901       .  S
O133        C138   1.277       .  A
O134       Ni136   1.894       .  S
O134        C137   1.276       .  A
Ni135      Ni136   2.389       .  S
C137        C180   1.466       .  S
C138        C190   1.475       .  S
C139        C223   1.471       .  S
C140        C233   1.487       .  S
O141       Ni149   1.927       .  S
O141        C151   1.285       .  A
O142       Ni149   1.931       .  S
O142        C152   1.285       .  A
O143       Ni149   1.898       .  S
O143        C153   1.276       .  A
O144       Ni149   1.901       .  S
O144        C154   1.277       .  A
O145       Ni150   1.948       .  S
O145        C154   1.289       .  A
O146       Ni150   1.941       .  S
O146        C153   1.285       .  A
O147       Ni150   1.906       .  S
O147        C152   1.278       .  A
O148       Ni150   1.896       .  S
O148        C151   1.276       .  A
Ni149      Ni150   2.389       .  S
C151        C213   1.470       .  S
C152        C203   1.480       .  S
C153        C170   1.470       .  S
C154        C373   1.486       .  S
O155       Ni163   1.922       .  S
O155        C165   1.283       .  A
O156       Ni163   1.930       .  S
O156        C166   1.285       .  A
O157       Ni163   1.905       .  S
O157        C167   1.278       .  A
O158       Ni163   1.906       .  S
O158        C168   1.278       .  A
O159       Ni164   1.943       .  S
O159        C168   1.288       .  A
O160       Ni164   1.937       .  S
O160        C167   1.284       .  A
O161       Ni164   1.900       .  S
O161        C166   1.277       .  A
O162       Ni164   1.894       .  S
O162        C165   1.276       .  A
Ni163      Ni164   2.389       .  S
C165        C183   1.468       .  S
C166        C193   1.476       .  S
C167        C173   1.471       .  S
C168        C270   1.488       .  S
C169        C170   1.406       .  A
C169        C174   1.406       .  A
C169        H175   1.083       .  S
C170        C171   1.401       .  A
C171        C172   1.396       .  A
C171        H176   1.084       .  S
C172        C173   1.403       .  A
C172        H177   1.084       .  S
C173        C174   1.403       .  A
C174        H178   1.083       .  S
C179        C184   1.394       .  A
C179        C588   1.406   1_545  A
C179        H593   1.083       .  S
C180        C181   1.399       .  A
C180        C587   1.406       .  A
C181        C590   1.393       .  A
C181        H186   1.083       .  S
C182        C183   1.407       .  A
C182        C589   1.393   1_545  A
C182        H187   1.083       .  S
C183        C184   1.400       .  A
C184        H188   1.083       .  S
H185        C587   1.083       .  S
C189        C190   1.408       .  A
C189       C1010   1.398   1_455  A
C189        H195   1.083       .  S
C190        C191   1.401       .  A
C191       C1008   1.396       .  A
C191        H196   1.083       .  S
C192        C193   1.408       .  A
C192       C1007   1.396       .  A
C192        H197   1.083       .  S
C193        C194   1.402       .  A
C194       C1005   1.398       .  A
C194        H198   1.083       .  S
C199        C204   1.398       .  A
C199        C608   1.408   1_545  A
C199        H613   1.083       .  S
C200        C201   1.402       .  A
C200        C607   1.408       .  A
C201        C610   1.400       .  A
C201        H206   1.083       .  S
C202        C203   1.409       .  A
C202        C609   1.400   1_545  A
C202        H207   1.083       .  S
C203        C204   1.402       .  A
C204        H208   1.083       .  S
H205        C607   1.083       .  S
C209        C210   1.408       .  A
C209       C1030   1.395   1_455  A
C209        H215   1.083       .  S
C210        C211   1.401       .  A
C211       C1028   1.396       .  A
C211        H216   1.083       .  S
C212        C213   1.407       .  A
C212       C1027   1.396       .  A
C212        H217   1.083       .  S
C213        C214   1.399       .  A
C214       C1025   1.395       .  A
C214        H218   1.083       .  S
C219        C220   1.401       .  A
C219        C224   1.399       .  A
C219        H225   1.084       .  S
C220        C221   1.405       .  A
C221        C222   1.404       .  A
C221        H226   1.083       .  S
C222        C223   1.403       .  A
C222        H227   1.083       .  S
C223        C224   1.404       .  A
C224        H228   1.084       .  S
C229        C230   1.413       .  A
C229        C234   1.406       .  A
C229        H235   1.084       .  S
C230        C231   1.401       .  A
C231        C232   1.400       .  A
C231        H236   1.082       .  S
C232        C233   1.410       .  A
C232        H237   1.084       .  S
C233        C234   1.403       .  A
C234        H238   1.082       .  S
C239        C240   1.405       .  A
C239        C244   1.402       .  A
C239        H245   1.084       .  S
C240        C241   1.401       .  A
C241        C242   1.399       .  A
C241        H246   1.083       .  S
C242        C243   1.404       .  A
C242        H247   1.084       .  S
C243        C244   1.402       .  A
C244        H248   1.083       .  S
C249        C250   1.400       .  A
C249        C662   1.392       .  A
C249        H255   1.083       .  S
C250        C659   1.406       .  A
C251        C252   1.394       .  A
C251        C658   1.406   1_545  A
C251        H664   1.083       .  S
C252        C253   1.401       .  A
C252        H257   1.083       .  S
C253        C254   1.406       .  A
C254        C657   1.392   1_545  A
C254        H258   1.083       .  S
H256        C659   1.083       .  S
C259        C260   1.401       .  A
C259        C264   1.398       .  A
C259        H265   1.083       .  S
C260        C261   1.408       .  A
C261        C262   1.398       .  A
C261        H266   1.083       .  S
C262        C263   1.401       .  A
C262        H267   1.083       .  S
C263        C264   1.409       .  A
C264        H268   1.083       .  S
C269        C270   1.411       .  A
C269        C274   1.402       .  A
C269        H275   1.083       .  S
C270        C271   1.403       .  A
C271        C272   1.403       .  A
C271        H276   1.082       .  S
C272        C273   1.410       .  A
C272        H277   1.084       .  S
C273        C274   1.401       .  A
C274        H278   1.082       .  S
C279        C280   1.402       .  A
C279        C284   1.397       .  A
C279        H285   1.083       .  S
C280        C281   1.408       .  A
C281        C282   1.400   1_545  A
C281        H286   1.083       .  S
C282        C691   1.403       .  A
C282        H695   1.083       .  S
C283        C690   1.403       .  A
C283        C692   1.407       .  A
C284        C691   1.407   1_545  A
C284        H696   1.083       .  S
H287        C690   1.083       .  S
H288        C692   1.083       .  S
C289        C290   1.401       .  A
C289        C294   1.395       .  A
C289        H295   1.083       .  S
C290        C291   1.406       .  A
C291        C292   1.394       .  A
C291        H296   1.083       .  S
C292        C293   1.401       .  A
C292        H297   1.083       .  S
C293        C294   1.406       .  A
C294        H298   1.083       .  S
C299        C300   1.405       .  A
C299        C304   1.402       .  A
C299        H305   1.084       .  S
C300        C301   1.402       .  A
C301        C302   1.399       .  A
C301        H306   1.084       .  S
C302        C303   1.404       .  A
C302        H307   1.084       .  S
C303        C304   1.402       .  A
C304        H308   1.083       .  S
C309        C310   1.404       .  A
C309        C314   1.404       .  A
C309        H315   1.083       .  S
C310        C311   1.411       .  A
C311        C312   1.400       .  A
C311        H316   1.083       .  S
C312        C313   1.400       .  A
C312        H317   1.083       .  S
C313        C314   1.409       .  A
C314        H318   1.083       .  S
C319        C320   1.411       .  A
C319        C324   1.402       .  A
C319        H325   1.084       .  S
C320        C321   1.402       .  A
C321        C322   1.402       .  A
C321        H326   1.082       .  S
C322        C323   1.410       .  A
C322        H327   1.083       .  S
C323        C324   1.401       .  A
C324        H328   1.083       .  S
C329        C330   1.403       .  A
C329        C334   1.406   1_554  A
C329        H335   1.083       .  S
C330        C331   1.403       .  A
C331        C332   1.395   1_554  A
C331        H336   1.084       .  S
C332        C333   1.400       .  A
C332        H337   1.084       .  S
C333        C334   1.406       .  A
C334        H338   1.083       .  S
C339        C340   1.401       .  A
C339       C1160   1.397       .  A
C339        H345   1.083       .  S
C340        C341   1.407       .  A
C341       C1158   1.401   1_455  A
C341        H346   1.083       .  S
C342        C343   1.404       .  A
C342       C1157   1.401       .  A
C342        H347   1.083       .  S
C343        C344   1.408       .  A
C344       C1155   1.397       .  A
C344        H348   1.083       .  S
C349        C350   1.408       .  A
C349        C354   1.396       .  A
C349        H355   1.083       .  S
C350        C351   1.402       .  A
C351        C352   1.395       .  A
C351        H356   1.083       .  S
C352        C353   1.405       .  A
C352        H357   1.083       .  S
C353        C354   1.400       .  A
C354        H358   1.083       .  S
C359        C360   1.401       .  A
C359        C364   1.402       .  A
C359        H365   1.083       .  S
C360        C361   1.410       .  A
C361        C362   1.402       .  A
C361        H366   1.084       .  S
C362        C363   1.403       .  A
C362        H367   1.083       .  S
C363        C364   1.411       .  A
C364        H368   1.083       .  S
C369        C370   1.411       .  A
C369        C374   1.403       .  A
C369        H375   1.083       .  S
C370        C371   1.402       .  A
C371        C372   1.401       .  A
C371        H376   1.082       .  S
C372        C373   1.410       .  A
C372        H377   1.084       .  S
C373        C374   1.401       .  A
C374        H378   1.082       .  S
C379        C380   1.406       .  A
C379       C1200   1.394   1_455  A
C379        H385   1.083       .  S
C380        C381   1.399       .  A
C381       C1198   1.392       .  A
C381        H386   1.083       .  S
C382        C383   1.406       .  A
C382       C1197   1.392       .  A
C382        H387   1.083       .  S
C383        C384   1.400       .  A
C384       C1195   1.394       .  A
C384        H388   1.083       .  S
C389        C390   1.402       .  A
C389        C394   1.397       .  A
C389        H395   1.083       .  S
C390        C391   1.408       .  A
C391        C392   1.398       .  A
C391        H396   1.083       .  S
C392        C393   1.402       .  A
C392        H397   1.083       .  S
C393        C394   1.407       .  A
C394        H398   1.083       .  S
C399        C400   1.403       .  A
C399        C404   1.404   1_554  A
C399        H405   1.083       .  S
C400        C401   1.404       .  A
C401        C402   1.398   1_554  A
C401        H406   1.084       .  S
C402        C403   1.401       .  A
C402        H407   1.084       .  S
C403        C404   1.406       .  A
C404        H408   1.083       .  S
O409       Ni417   1.922       .  S
O409        C419   1.283       .  A
O410       Ni417   1.929       .  S
O410        C420   1.285       .  A
O411       Ni417   1.904       .  S
O411        C421   1.278       .  A
O412       Ni417   1.905       .  S
O412        C422   1.278       .  A
O413       Ni418   1.944       .  S
O413        C422   1.288       .  A
O414       Ni418   1.939       .  S
O414        C421   1.284       .  A
O415       Ni418   1.901       .  S
O415        C420   1.277       .  A
O416       Ni418   1.893       .  S
O416        C419   1.276       .  A
Ni417      Ni418   2.389       .  S
C419        C791   1.467       .  S
C420        C801   1.476       .  S
C421        C808   1.471       .  S
C422        C778   1.487       .  S
O423       Ni431   1.924       .  S
O423        C433   1.284       .  A
O424       Ni431   1.931       .  S
O424        C434   1.285       .  A
O425       Ni431   1.903       .  S
O425        C435   1.277       .  A
O426       Ni431   1.905       .  S
O426        C436   1.277       .  A
O427       Ni432   1.943       .  S
O427        C436   1.288       .  A
O428       Ni432   1.939       .  S
O428        C435   1.285       .  A
O429       Ni432   1.906       .  S
O429        C434   1.279       .  A
O430       Ni432   1.899       .  S
O430        C433   1.277       .  A
Ni431      Ni432   2.388       .  S
C433        C758   1.474       .  S
C434        C751   1.482       .  S
C435        C811   1.471       .  S
C436        C768   1.483       .  S
O437       Ni445   1.918       .  S
O437        C447   1.283       .  A
O438       Ni445   1.926       .  S
O438        C448   1.284       .  A
O439       Ni445   1.901       .  S
O439        C449   1.277       .  A
O440       Ni445   1.903       .  S
O440        C450   1.277       .  A
O441       Ni446   1.944       .  S
O441        C450   1.288       .  A
O442       Ni446   1.938       .  S
O442        C449   1.284       .  A
O443       Ni446   1.904       .  S
O443        C448   1.278       .  A
O444       Ni446   1.896       .  S
O444        C447   1.277       .  A
Ni445      Ni446   2.390       .  S
C447        C788   1.465       .  S
C448        C798   1.476       .  S
C449        C738   1.470       .  S
C450        C728   1.486       .  S
O451       Ni459   1.923       .  S
O451        C461   1.283       .  A
O452       Ni459   1.924       .  S
O452        C462   1.284       .  A
O453       Ni459   1.905       .  S
O453        C463   1.278       .  A
O454       Ni459   1.903       .  S
O454        C464   1.278       .  A
O455       Ni460   1.944       .  S
O455        C464   1.288       .  A
O456       Ni460   1.935       .  S
O456        C463   1.284       .  A
O457       Ni460   1.912       .  S
O457        C462   1.279       .  A
O458       Ni460   1.900       .  S
O458        C461   1.278       .  A
Ni459      Ni460   2.389       .  S
C461        C761   1.467       .  S
C462        C748   1.478       .  S
C463        C741   1.471       .  S
C464        C718   1.487       .  S
O465       Ni473   1.921       .  S
O465        C475   1.283       .  A
O466       Ni473   1.925       .  S
O466        C476   1.284       .  A
O467       Ni473   1.904       .  S
O467        C477   1.278       .  A
O468       Ni473   1.904       .  S
O468        C478   1.278       .  A
O469       Ni474   1.943       .  S
O469        C478   1.288       .  A
O470       Ni474   1.936       .  S
O470        C477   1.284       .  A
O471       Ni474   1.911       .  S
O471        C476   1.279       .  A
O472       Ni474   1.900       .  S
O472        C475   1.278       .  A
Ni473      Ni474   2.389       .  S
C475        C698   1.469       .  S
C476        C688   1.479       .  S
C477        C708   1.469       .  S
C478        C771   1.487       .  S
O479       Ni487   1.921       .  S
O479        C489   1.283       .  A
O480       Ni487   1.930       .  S
O480        C490   1.285       .  A
O481       Ni487   1.905       .  S
O481        C491   1.278       .  A
O482       Ni487   1.906       .  S
O482        C492   1.278       .  A
O483       Ni488   1.942       .  S
O483        C492   1.288       .  A
O484       Ni488   1.937       .  S
O484        C491   1.284       .  A
O485       Ni488   1.902       .  S
O485        C490   1.277       .  A
O486       Ni488   1.895       .  S
O486        C489   1.277       .  A
Ni487      Ni488   2.390       .  S
C489        C661   1.467       .  S
C490        C671   1.477       .  S
C491        C711   1.470       .  S
C492        C681   1.484       .  S
O493       Ni501   1.921       .  S
O493        C503   1.283       .  A
O494       Ni501   1.930       .  S
O494        C504   1.285       .  A
O495       Ni501   1.908       .  S
O495        C505   1.279       .  A
O496       Ni501   1.908       .  S
O496        C506   1.278       .  A
O497       Ni502   1.938       .  S
O497        C506   1.287       .  A
O498       Ni502   1.933       .  S
O498        C505   1.283       .  A
O499       Ni502   1.907       .  S
O499        C504   1.279       .  A
O500       Ni502   1.900       .  S
O500        C503   1.278       .  A
Ni501      Ni502   2.389       .  S
C503        C701   1.469       .  S
C504        C691   1.480       .  S
C505        C648   1.469       .  S
C506        C721   1.481       .  S
O507       Ni515   1.920       .  S
O507        C517   1.283       .  A
O508       Ni515   1.929       .  S
O508        C518   1.285       .  A
O509       Ni515   1.904       .  S
O509        C519   1.278       .  A
O510       Ni515   1.908       .  S
O510        C520   1.278       .  A
O511       Ni516   1.942       .  S
O511        C520   1.288       .  A
O512       Ni516   1.936       .  S
O512        C519   1.284       .  A
O513       Ni516   1.903       .  S
O513        C518   1.278       .  A
O514       Ni516   1.895       .  S
O514        C517   1.276       .  A
Ni515      Ni516   2.390       .  S
C517        C658   1.466       .  S
C518        C668   1.477       .  S
C519        C651   1.468       .  S
C520        C638   1.488       .  S
O521       Ni529   1.929       .  S
O521        C531   1.285       .  A
O522       Ni529   1.934       .  S
O522        C532   1.286       .  A
O523       Ni529   1.906       .  S
O523        C533   1.278       .  A
O524       Ni529   1.906       .  S
O524        C534   1.278       .  A
O525       Ni530   1.943       .  S
O525        C534   1.288       .  A
O526       Ni530   1.937       .  S
O526        C533   1.284       .  A
O527       Ni530   1.902       .  S
O527        C532   1.278       .  A
O528       Ni530   1.896       .  S
O528        C531   1.277       .  A
Ni529      Ni530   2.388       .  S
C531        C618   1.473       .  S
C532        C608   1.480       .  S
C533        C628   1.472       .  S
C534        C731   1.484       .  S
O535       Ni543   1.922       .  S
O535        C545   1.284       .  A
O536       Ni543   1.928       .  S
O536        C546   1.285       .  A
O537       Ni543   1.898       .  S
O537        C547   1.276       .  A
O538       Ni543   1.899       .  S
O538        C548   1.276       .  A
O539       Ni544   1.952       .  S
O539        C548   1.289       .  A
O540       Ni544   1.944       .  S
O540        C547   1.286       .  A
O541       Ni544   1.901       .  S
O541        C546   1.277       .  A
O542       Ni544   1.894       .  S
O542        C545   1.276       .  A
Ni543      Ni544   2.389       .  S
C545        C588   1.466       .  S
C546        C598   1.475       .  S
C547        C631   1.471       .  S
C548        C641   1.487       .  S
O549       Ni557   1.927       .  S
O549        C559   1.285       .  A
O550       Ni557   1.931       .  S
O550        C560   1.285       .  A
O551       Ni557   1.898       .  S
O551        C561   1.276       .  A
O552       Ni557   1.901       .  S
O552        C562   1.277       .  A
O553       Ni558   1.948       .  S
O553        C562   1.289       .  A
O554       Ni558   1.941       .  S
O554        C561   1.285       .  A
O555       Ni558   1.906       .  S
O555        C560   1.278       .  A
O556       Ni558   1.896       .  S
O556        C559   1.276       .  A
Ni557      Ni558   2.389       .  S
C559        C621   1.470       .  S
C560        C611   1.480       .  S
C561        C578   1.470       .  S
C562        C781   1.486       .  S
O563       Ni571   1.922       .  S
O563        C573   1.283       .  A
O564       Ni571   1.930       .  S
O564        C574   1.285       .  A
O565       Ni571   1.905       .  S
O565        C575   1.278       .  A
O566       Ni571   1.906       .  S
O566        C576   1.278       .  A
O567       Ni572   1.943       .  S
O567        C576   1.288       .  A
O568       Ni572   1.937       .  S
O568        C575   1.284       .  A
O569       Ni572   1.900       .  S
O569        C574   1.277       .  A
O570       Ni572   1.894       .  S
O570        C573   1.276       .  A
Ni571      Ni572   2.389       .  S
C573        C591   1.468       .  S
C574        C601   1.476       .  S
C575        C581   1.471       .  S
C576        C678   1.488       .  S
C577        C578   1.406       .  A
C577        C582   1.406       .  A
C577        H583   1.083       .  S
C578        C579   1.401       .  A
C579        C580   1.396       .  A
C579        H584   1.084       .  S
C580        C581   1.403       .  A
C580        H585   1.084       .  S
C581        C582   1.403       .  A
C582        H586   1.083       .  S
C587        C592   1.394       .  A
C588        C589   1.399       .  A
C589        H594   1.083       .  S
C590        C591   1.407       .  A
C590        H595   1.083       .  S
C591        C592   1.400       .  A
C592        H596   1.083       .  S
C597        C598   1.408       .  A
C597       C1418   1.398   1_455  A
C597        H603   1.083       .  S
C598        C599   1.401       .  A
C599       C1416   1.396       .  A
C599        H604   1.083       .  S
C600       C1415   1.396       .  A
C600        C601   1.408       .  A
C600        H605   1.083       .  S
C601        C602   1.402       .  A
C602       C1413   1.398       .  A
C602        H606   1.083       .  S
C607        C612   1.398       .  A
C608        C609   1.402       .  A
C609        H614   1.083       .  S
C610        C611   1.409       .  A
C610        H615   1.083       .  S
C611        C612   1.402       .  A
C612        H616   1.083       .  S
C617        C618   1.408       .  A
C617       C1438   1.395   1_455  A
C617        H623   1.083       .  S
C618        C619   1.401       .  A
C619       C1436   1.396       .  A
C619        H624   1.083       .  S
C620       C1435   1.396       .  A
C620        C621   1.407       .  A
C620        H625   1.083       .  S
C621        C622   1.399       .  A
C622       C1433   1.395       .  A
C622        H626   1.083       .  S
C627        C628   1.401       .  A
C627        C632   1.399       .  A
C627        H633   1.084       .  S
C628        C629   1.405       .  A
C629        C630   1.404       .  A
C629        H634   1.083       .  S
C630        C631   1.403       .  A
C630        H635   1.083       .  S
C631        C632   1.404       .  A
C632        H636   1.084       .  S
C637        C638   1.413       .  A
C637        C642   1.406       .  A
C637        H643   1.084       .  S
C638        C639   1.401       .  A
C639        C640   1.400       .  A
C639        H644   1.082       .  S
C640        C641   1.410       .  A
C640        H645   1.084       .  S
C641        C642   1.403       .  A
C642        H646   1.082       .  S
C647        C648   1.405       .  A
C647        C652   1.402       .  A
C647        H653   1.084       .  S
C648        C649   1.401       .  A
C649        C650   1.399       .  A
C649        H654   1.083       .  S
C650        C651   1.404       .  A
C650        H655   1.084       .  S
C651        C652   1.402       .  A
C652        H656   1.083       .  S
C657        C658   1.400       .  A
C657        H663   1.083       .  S
C659        C660   1.394       .  A
C660        C661   1.401       .  A
C660        H665   1.083       .  S
C661        C662   1.406       .  A
C662        H666   1.083       .  S
C667        C668   1.401       .  A
C667        C672   1.398       .  A
C667        H673   1.083       .  S
C668        C669   1.408       .  A
C669        C670   1.398       .  A
C669        H674   1.083       .  S
C670        C671   1.401       .  A
C670        H675   1.083       .  S
C671        C672   1.409       .  A
C672        H676   1.083       .  S
C677        C678   1.411       .  A
C677        C682   1.402       .  A
C677        H683   1.083       .  S
C678        C679   1.403       .  A
C679        C680   1.403       .  A
C679        H684   1.082       .  S
C680        C681   1.410       .  A
C680        H685   1.084       .  S
C681        C682   1.401       .  A
C682        H686   1.082       .  S
C687        C688   1.402       .  A
C687        C692   1.397       .  A
C687        H693   1.083       .  S
C688        C689   1.408       .  A
C689        C690   1.400       .  A
C689        H694   1.083       .  S
C697        C698   1.401       .  A
C697        C702   1.395       .  A
C697        H703   1.083       .  S
C698        C699   1.406       .  A
C699        C700   1.394       .  A
C699        H704   1.083       .  S
C700        C701   1.401       .  A
C700        H705   1.083       .  S
C701        C702   1.406       .  A
C702        H706   1.083       .  S
C707        C708   1.405       .  A
C707        C712   1.402       .  A
C707        H713   1.084       .  S
C708        C709   1.402       .  A
C709        C710   1.399       .  A
C709        H714   1.084       .  S
C710        C711   1.404       .  A
C710        H715   1.084       .  S
C711        C712   1.402       .  A
C712        H716   1.083       .  S
C717        C718   1.404       .  A
C717        C722   1.404       .  A
C717        H723   1.083       .  S
C718        C719   1.411       .  A
C719        C720   1.400       .  A
C719        H724   1.083       .  S
C720        C721   1.400       .  A
C720        H725   1.083       .  S
C721        C722   1.409       .  A
C722        H726   1.083       .  S
C727        C728   1.411       .  A
C727        C732   1.402       .  A
C727        H733   1.084       .  S
C728        C729   1.402       .  A
C729        C730   1.402       .  A
C729        H734   1.082       .  S
C730        C731   1.410       .  A
C730        H735   1.083       .  S
C731        C732   1.401       .  A
C732        H736   1.083       .  S
C737        C738   1.403       .  A
C737        C742   1.406   1_554  A
C737        H743   1.083       .  S
C738        C739   1.403       .  A
C739        C740   1.395   1_554  A
C739        H744   1.084       .  S
C740        C741   1.400       .  A
C740        H745   1.084       .  S
C741        C742   1.406       .  A
C742        H746   1.083       .  S
C747        C748   1.401       .  A
C747       C1568   1.397       .  A
C747        H753   1.083       .  S
C748        C749   1.407       .  A
C749       C1566   1.401   1_455  A
C749        H754   1.083       .  S
C750       C1565   1.401       .  A
C750        C751   1.404       .  A
C750        H755   1.083       .  S
C751        C752   1.408       .  A
C752       C1563   1.397       .  A
C752        H756   1.083       .  S
C757        C758   1.408       .  A
C757        C762   1.396       .  A
C757        H763   1.083       .  S
C758        C759   1.402       .  A
C759        C760   1.395       .  A
C759        H764   1.083       .  S
C760        C761   1.405       .  A
C760        H765   1.083       .  S
C761        C762   1.400       .  A
C762        H766   1.083       .  S
C767        C768   1.401       .  A
C767        C772   1.402       .  A
C767        H773   1.083       .  S
C768        C769   1.410       .  A
C769        C770   1.402       .  A
C769        H774   1.084       .  S
C770        C771   1.403       .  A
C770        H775   1.083       .  S
C771        C772   1.411       .  A
C772        H776   1.083       .  S
C777        C778   1.411       .  A
C777        C782   1.403       .  A
C777        H783   1.083       .  S
C778        C779   1.402       .  A
C779        C780   1.401       .  A
C779        H784   1.082       .  S
C780        C781   1.410       .  A
C780        H785   1.084       .  S
C781        C782   1.401       .  A
C782        H786   1.082       .  S
C787        C788   1.406       .  A
C787       C1608   1.394   1_455  A
C787        H793   1.083       .  S
C788        C789   1.399       .  A
C789       C1606   1.392       .  A
C789        H794   1.083       .  S
C790       C1605   1.392       .  A
C790        C791   1.406       .  A
C790        H795   1.083       .  S
C791        C792   1.400       .  A
C792       C1603   1.394       .  A
C792        H796   1.083       .  S
C797        C798   1.402       .  A
C797        C802   1.397       .  A
C797        H803   1.083       .  S
C798        C799   1.408       .  A
C799        C800   1.398       .  A
C799        H804   1.083       .  S
C800        C801   1.402       .  A
C800        H805   1.083       .  S
C801        C802   1.407       .  A
C802        H806   1.083       .  S
C807        C808   1.403       .  A
C807        C812   1.404   1_554  A
C807        H813   1.083       .  S
C808        C809   1.404       .  A
C809        C810   1.398   1_554  A
C809        H814   1.084       .  S
C810        C811   1.401       .  A
C810        H815   1.084       .  S
C811        C812   1.406       .  A
C812        H816   1.083       .  S
O817       Ni825   1.922       .  S
O817        C827   1.283       .  A
O818       Ni825   1.929       .  S
O818        C828   1.285       .  A
O819       Ni825   1.904       .  S
O819        C829   1.278       .  A
O820       Ni825   1.905       .  S
O820        C830   1.278       .  A
O821       Ni826   1.944       .  S
O821        C830   1.288       .  A
O822       Ni826   1.939       .  S
O822        C829   1.284       .  A
O823       Ni826   1.901       .  S
O823        C828   1.277       .  A
O824       Ni826   1.893       .  S
O824        C827   1.276       .  A
Ni825      Ni826   2.389       .  S
C827       C1199   1.467       .  S
C828       C1209   1.476       .  S
C829       C1216   1.471       .  S
C830       C1186   1.487       .  S
O831       Ni839   1.924       .  S
O831        C841   1.284       .  A
O832       Ni839   1.931       .  S
O832        C842   1.285       .  A
O833       Ni839   1.903       .  S
O833        C843   1.277       .  A
O834       Ni839   1.905       .  S
O834        C844   1.277       .  A
O835       Ni840   1.943       .  S
O835        C844   1.288       .  A
O836       Ni840   1.939       .  S
O836        C843   1.285       .  A
O837       Ni840   1.906       .  S
O837        C842   1.279       .  A
O838       Ni840   1.899       .  S
O838        C841   1.277       .  A
Ni839      Ni840   2.388       .  S
C841       C1166   1.474       .  S
C842       C1159   1.482       .  S
C843       C1219   1.471       .  S
C844       C1176   1.483       .  S
O845       Ni853   1.918       .  S
O845        C855   1.283       .  A
O846       Ni853   1.926       .  S
O846        C856   1.284       .  A
O847       Ni853   1.901       .  S
O847        C857   1.277       .  A
O848       Ni853   1.903       .  S
O848        C858   1.277       .  A
O849       Ni854   1.944       .  S
O849        C858   1.288       .  A
O850       Ni854   1.938       .  S
O850        C857   1.284       .  A
O851       Ni854   1.904       .  S
O851        C856   1.278       .  A
O852       Ni854   1.896       .  S
O852        C855   1.277       .  A
Ni853      Ni854   2.390       .  S
C855       C1196   1.465       .  S
C856       C1206   1.476       .  S
C857       C1146   1.470       .  S
C858       C1136   1.486       .  S
O859       Ni867   1.923       .  S
O859        C869   1.283       .  A
O860       Ni867   1.924       .  S
O860        C870   1.284       .  A
O861       Ni867   1.905       .  S
O861        C871   1.278       .  A
O862       Ni867   1.903       .  S
O862        C872   1.278       .  A
O863       Ni868   1.944       .  S
O863        C872   1.288       .  A
O864       Ni868   1.935       .  S
O864        C871   1.284       .  A
O865       Ni868   1.912       .  S
O865        C870   1.279       .  A
O866       Ni868   1.900       .  S
O866        C869   1.278       .  A
Ni867      Ni868   2.389       .  S
C869       C1169   1.467       .  S
C870       C1156   1.478       .  S
C871       C1149   1.471       .  S
C872       C1126   1.487       .  S
O873       Ni881   1.921       .  S
O873        C883   1.283       .  A
O874       Ni881   1.925       .  S
O874        C884   1.284       .  A
O875       Ni881   1.904       .  S
O875        C885   1.278       .  A
O876       Ni881   1.904       .  S
O876        C886   1.278       .  A
O877       Ni882   1.943       .  S
O877        C886   1.288       .  A
O878       Ni882   1.936       .  S
O878        C885   1.284       .  A
O879       Ni882   1.911       .  S
O879        C884   1.279       .  A
O880       Ni882   1.900       .  S
O880        C883   1.278       .  A
Ni881      Ni882   2.389       .  S
C883       C1106   1.469       .  S
C884       C1096   1.479       .  S
C885       C1116   1.469       .  S
C886       C1179   1.487       .  S
O887       Ni895   1.921       .  S
O887        C897   1.283       .  A
O888       Ni895   1.930       .  S
O888        C898   1.285       .  A
O889       Ni895   1.905       .  S
O889        C899   1.278       .  A
O890       Ni895   1.906       .  S
O890        C900   1.278       .  A
O891       Ni896   1.942       .  S
O891        C900   1.288       .  A
O892       Ni896   1.937       .  S
O892        C899   1.284       .  A
O893       Ni896   1.902       .  S
O893        C898   1.277       .  A
O894       Ni896   1.895       .  S
O894        C897   1.277       .  A
Ni895      Ni896   2.390       .  S
C897       C1069   1.467       .  S
C898       C1079   1.477       .  S
C899       C1119   1.470       .  S
C900       C1089   1.484       .  S
O901       Ni909   1.921       .  S
O901        C911   1.283       .  A
O902       Ni909   1.930       .  S
O902        C912   1.285       .  A
O903       Ni909   1.908       .  S
O903        C913   1.279       .  A
O904       Ni909   1.908       .  S
O904        C914   1.278       .  A
O905       Ni910   1.938       .  S
O905        C914   1.287       .  A
O906       Ni910   1.933       .  S
O906        C913   1.283       .  A
O907       Ni910   1.907       .  S
O907        C912   1.279       .  A
O908       Ni910   1.900       .  S
O908        C911   1.278       .  A
Ni909      Ni910   2.389       .  S
C911       C1109   1.469       .  S
C912       C1099   1.480       .  S
C913       C1056   1.469       .  S
C914       C1129   1.481       .  S
O915       Ni923   1.920       .  S
O915        C925   1.283       .  A
O916       Ni923   1.929       .  S
O916        C926   1.285       .  A
O917       Ni923   1.904       .  S
O917        C927   1.278       .  A
O918       Ni923   1.908       .  S
O918        C928   1.278       .  A
O919       Ni924   1.942       .  S
O919        C928   1.288       .  A
O920       Ni924   1.936       .  S
O920        C927   1.284       .  A
O921       Ni924   1.903       .  S
O921        C926   1.278       .  A
O922       Ni924   1.895       .  S
O922        C925   1.276       .  A
Ni923      Ni924   2.390       .  S
C925       C1066   1.466       .  S
C926       C1076   1.477       .  S
C927       C1059   1.468       .  S
C928       C1046   1.488       .  S
O929       Ni937   1.929       .  S
O929        C939   1.285       .  A
O930       Ni937   1.934       .  S
O930        C940   1.286       .  A
O931       Ni937   1.906       .  S
O931        C941   1.278       .  A
O932       Ni937   1.906       .  S
O932        C942   1.278       .  A
O933       Ni938   1.943       .  S
O933        C942   1.288       .  A
O934       Ni938   1.937       .  S
O934        C941   1.284       .  A
O935       Ni938   1.902       .  S
O935        C940   1.278       .  A
O936       Ni938   1.896       .  S
O936        C939   1.277       .  A
Ni937      Ni938   2.388       .  S
C939       C1026   1.473       .  S
C940       C1016   1.480       .  S
C941       C1036   1.472       .  S
C942       C1139   1.484       .  S
O943       Ni951   1.922       .  S
O943        C953   1.284       .  A
O944       Ni951   1.928       .  S
O944        C954   1.285       .  A
O945       Ni951   1.898       .  S
O945        C955   1.276       .  A
O946       Ni951   1.899       .  S
O946        C956   1.276       .  A
O947       Ni952   1.952       .  S
O947        C956   1.289       .  A
O948       Ni952   1.944       .  S
O948        C955   1.286       .  A
O949       Ni952   1.901       .  S
O949        C954   1.277       .  A
O950       Ni952   1.894       .  S
O950        C953   1.276       .  A
Ni951      Ni952   2.389       .  S
C953        C996   1.466       .  S
C954       C1006   1.475       .  S
C955       C1039   1.471       .  S
C956       C1049   1.487       .  S
O957       Ni965   1.927       .  S
O957        C967   1.285       .  A
O958       Ni965   1.931       .  S
O958        C968   1.285       .  A
O959       Ni965   1.898       .  S
O959        C969   1.276       .  A
O960       Ni965   1.901       .  S
O960        C970   1.277       .  A
O961       Ni966   1.948       .  S
O961        C970   1.289       .  A
O962       Ni966   1.941       .  S
O962        C969   1.285       .  A
O963       Ni966   1.906       .  S
O963        C968   1.278       .  A
O964       Ni966   1.896       .  S
O964        C967   1.276       .  A
Ni965      Ni966   2.389       .  S
C967       C1029   1.470       .  S
C968       C1019   1.480       .  S
C969        C986   1.470       .  S
C970       C1189   1.486       .  S
O971       Ni979   1.922       .  S
O971        C981   1.283       .  A
O972       Ni979   1.930       .  S
O972        C982   1.285       .  A
O973       Ni979   1.905       .  S
O973        C983   1.278       .  A
O974       Ni979   1.906       .  S
O974        C984   1.278       .  A
O975       Ni980   1.943       .  S
O975        C984   1.288       .  A
O976       Ni980   1.937       .  S
O976        C983   1.284       .  A
O977       Ni980   1.900       .  S
O977        C982   1.277       .  A
O978       Ni980   1.894       .  S
O978        C981   1.276       .  A
Ni979      Ni980   2.389       .  S
C981        C999   1.468       .  S
C982       C1009   1.476       .  S
C983        C989   1.471       .  S
C984       C1086   1.488       .  S
C985        C986   1.406       .  A
C985        C990   1.406       .  A
C985        H991   1.083       .  S
C986        C987   1.401       .  A
C987        C988   1.396       .  A
C987        H992   1.084       .  S
C988        C989   1.403       .  A
C988        H993   1.084       .  S
C989        C990   1.403       .  A
C990        H994   1.083       .  S
C995       C1404   1.406   1_545  A
C995       C1000   1.394       .  A
C995       H1409   1.083       .  S
C996       C1403   1.406       .  A
C996        C997   1.399       .  A
C997       C1406   1.393       .  A
C997       H1002   1.083       .  S
C998       C1405   1.393   1_545  A
C998        C999   1.407       .  A
C998       H1003   1.083       .  S
C999       C1000   1.400       .  A
C1000      H1004   1.083       .  S
H1001      C1403   1.083       .  S
C1005      C1006   1.408       .  A
C1005      H1011   1.083       .  S
C1006      C1007   1.401       .  A
C1007      H1012   1.083       .  S
C1008      C1009   1.408   1_455  A
C1008      H1013   1.083       .  S
C1009      C1010   1.402       .  A
C1010      H1014   1.083       .  S
C1015      C1424   1.408   1_545  A
C1015      C1020   1.398       .  A
C1015      H1429   1.083       .  S
C1016      C1423   1.408       .  A
C1016      C1017   1.402       .  A
C1017      C1426   1.400       .  A
C1017      H1022   1.083       .  S
C1018      C1425   1.400   1_545  A
C1018      C1019   1.409       .  A
C1018      H1023   1.083       .  S
C1019      C1020   1.402       .  A
C1020      H1024   1.083       .  S
H1021      C1423   1.083       .  S
C1025      C1026   1.408       .  A
C1025      H1031   1.083       .  S
C1026      C1027   1.401       .  A
C1027      H1032   1.083       .  S
C1028      C1029   1.407   1_455  A
C1028      H1033   1.083       .  S
C1029      C1030   1.399       .  A
C1030      H1034   1.083       .  S
C1035      C1036   1.401       .  A
C1035      C1040   1.399       .  A
C1035      H1041   1.084       .  S
C1036      C1037   1.405       .  A
C1037      C1038   1.404       .  A
C1037      H1042   1.083       .  S
C1038      C1039   1.403       .  A
C1038      H1043   1.083       .  S
C1039      C1040   1.404       .  A
C1040      H1044   1.084       .  S
C1045      C1046   1.413       .  A
C1045      C1050   1.406       .  A
C1045      H1051   1.084       .  S
C1046      C1047   1.401       .  A
C1047      C1048   1.400       .  A
C1047      H1052   1.082       .  S
C1048      C1049   1.410       .  A
C1048      H1053   1.084       .  S
C1049      C1050   1.403       .  A
C1050      H1054   1.082       .  S
C1055      C1056   1.405       .  A
C1055      C1060   1.402       .  A
C1055      H1061   1.084       .  S
C1056      C1057   1.401       .  A
C1057      C1058   1.399       .  A
C1057      H1062   1.083       .  S
C1058      C1059   1.404       .  A
C1058      H1063   1.084       .  S
C1059      C1060   1.402       .  A
C1060      H1064   1.083       .  S
C1065      C1066   1.400       .  A
C1065      C1478   1.392       .  A
C1065      H1071   1.083       .  S
C1066      C1475   1.406       .  A
C1067      C1474   1.406   1_545  A
C1067      C1068   1.394       .  A
C1067      H1480   1.083       .  S
C1068      C1069   1.401       .  A
C1068      H1073   1.083       .  S
C1069      C1070   1.406       .  A
C1070      C1473   1.392   1_545  A
C1070      H1074   1.083       .  S
H1072      C1475   1.083       .  S
C1075      C1076   1.401       .  A
C1075      C1080   1.398       .  A
C1075      H1081   1.083       .  S
C1076      C1077   1.408       .  A
C1077      C1078   1.398       .  A
C1077      H1082   1.083       .  S
C1078      C1079   1.401       .  A
C1078      H1083   1.083       .  S
C1079      C1080   1.409       .  A
C1080      H1084   1.083       .  S
C1085      C1086   1.411       .  A
C1085      C1090   1.402       .  A
C1085      H1091   1.083       .  S
C1086      C1087   1.403       .  A
C1087      C1088   1.403       .  A
C1087      H1092   1.082       .  S
C1088      C1089   1.410       .  A
C1088      H1093   1.084       .  S
C1089      C1090   1.401       .  A
C1090      H1094   1.082       .  S
C1095      C1096   1.402       .  A
C1095      C1100   1.397       .  A
C1095      H1101   1.083       .  S
C1096      C1097   1.408       .  A
C1097      C1098   1.400   1_545  A
C1097      H1102   1.083       .  S
C1098      C1507   1.403       .  A
C1098      H1511   1.083       .  S
C1099      C1506   1.403       .  A
C1099      C1508   1.407       .  A
C1100      C1507   1.407   1_545  A
C1100      H1512   1.083       .  S
H1103      C1506   1.083       .  S
H1104      C1508   1.083       .  S
C1105      C1106   1.401       .  A
C1105      C1110   1.395       .  A
C1105      H1111   1.083       .  S
C1106      C1107   1.406       .  A
C1107      C1108   1.394       .  A
C1107      H1112   1.083       .  S
C1108      C1109   1.401       .  A
C1108      H1113   1.083       .  S
C1109      C1110   1.406       .  A
C1110      H1114   1.083       .  S
C1115      C1116   1.405       .  A
C1115      C1120   1.402       .  A
C1115      H1121   1.084       .  S
C1116      C1117   1.402       .  A
C1117      C1118   1.399       .  A
C1117      H1122   1.084       .  S
C1118      C1119   1.404       .  A
C1118      H1123   1.084       .  S
C1119      C1120   1.402       .  A
C1120      H1124   1.083       .  S
C1125      C1126   1.404       .  A
C1125      C1130   1.404       .  A
C1125      H1131   1.083       .  S
C1126      C1127   1.411       .  A
C1127      C1128   1.400       .  A
C1127      H1132   1.083       .  S
C1128      C1129   1.400       .  A
C1128      H1133   1.083       .  S
C1129      C1130   1.409       .  A
C1130      H1134   1.083       .  S
C1135      C1136   1.411       .  A
C1135      C1140   1.402       .  A
C1135      H1141   1.084       .  S
C1136      C1137   1.402       .  A
C1137      C1138   1.402       .  A
C1137      H1142   1.082       .  S
C1138      C1139   1.410       .  A
C1138      H1143   1.083       .  S
C1139      C1140   1.401       .  A
C1140      H1144   1.083       .  S
C1145      C1146   1.403       .  A
C1145      C1150   1.406   1_554  A
C1145      H1151   1.083       .  S
C1146      C1147   1.403       .  A
C1147      C1148   1.395   1_554  A
C1147      H1152   1.084       .  S
C1148      C1149   1.400       .  A
C1148      H1153   1.084       .  S
C1149      C1150   1.406       .  A
C1150      H1154   1.083       .  S
C1155      C1156   1.401       .  A
C1155      H1161   1.083       .  S
C1156      C1157   1.407       .  A
C1157      H1162   1.083       .  S
C1158      C1159   1.404       .  A
C1158      H1163   1.083       .  S
C1159      C1160   1.408   1_655  A
C1160      H1164   1.083       .  S
C1165      C1166   1.408       .  A
C1165      C1170   1.396       .  A
C1165      H1171   1.083       .  S
C1166      C1167   1.402       .  A
C1167      C1168   1.395       .  A
C1167      H1172   1.083       .  S
C1168      C1169   1.405       .  A
C1168      H1173   1.083       .  S
C1169      C1170   1.400       .  A
C1170      H1174   1.083       .  S
C1175      C1176   1.401       .  A
C1175      C1180   1.402       .  A
C1175      H1181   1.083       .  S
C1176      C1177   1.410       .  A
C1177      C1178   1.402       .  A
C1177      H1182   1.084       .  S
C1178      C1179   1.403       .  A
C1178      H1183   1.083       .  S
C1179      C1180   1.411       .  A
C1180      H1184   1.083       .  S
C1185      C1186   1.411       .  A
C1185      C1190   1.403       .  A
C1185      H1191   1.083       .  S
C1186      C1187   1.402       .  A
C1187      C1188   1.401       .  A
C1187      H1192   1.082       .  S
C1188      C1189   1.410       .  A
C1188      H1193   1.084       .  S
C1189      C1190   1.401       .  A
C1190      H1194   1.082       .  S
C1195      C1196   1.406       .  A
C1195      H1201   1.083       .  S
C1196      C1197   1.399       .  A
C1197      H1202   1.083       .  S
C1198      C1199   1.406   1_455  A
C1198      H1203   1.083       .  S
C1199      C1200   1.400       .  A
C1200      H1204   1.083       .  S
C1205      C1206   1.402       .  A
C1205      C1210   1.397       .  A
C1205      H1211   1.083       .  S
C1206      C1207   1.408       .  A
C1207      C1208   1.398       .  A
C1207      H1212   1.083       .  S
C1208      C1209   1.402       .  A
C1208      H1213   1.083       .  S
C1209      C1210   1.407       .  A
C1210      H1214   1.083       .  S
C1215      C1216   1.403       .  A
C1215      C1220   1.404   1_554  A
C1215      H1221   1.083       .  S
C1216      C1217   1.404       .  A
C1217      C1218   1.398   1_554  A
C1217      H1222   1.084       .  S
C1218      C1219   1.401       .  A
C1218      H1223   1.084       .  S
C1219      C1220   1.406       .  A
C1220      H1224   1.083       .  S
O1225     Ni1233   1.922       .  S
O1225      C1235   1.283       .  A
O1226     Ni1233   1.929       .  S
O1226      C1236   1.285       .  A
O1227     Ni1233   1.904       .  S
O1227      C1237   1.278       .  A
O1228     Ni1233   1.905       .  S
O1228      C1238   1.278       .  A
O1229     Ni1234   1.944       .  S
O1229      C1238   1.288       .  A
O1230     Ni1234   1.939       .  S
O1230      C1237   1.284       .  A
O1231     Ni1234   1.901       .  S
O1231      C1236   1.277       .  A
O1232     Ni1234   1.893       .  S
O1232      C1235   1.276       .  A
Ni1233    Ni1234   2.389       .  S
C1235      C1607   1.467       .  S
C1236      C1617   1.476       .  S
C1237      C1624   1.471       .  S
C1238      C1594   1.487       .  S
O1239     Ni1247   1.924       .  S
O1239      C1249   1.284       .  A
O1240     Ni1247   1.931       .  S
O1240      C1250   1.285       .  A
O1241     Ni1247   1.903       .  S
O1241      C1251   1.277       .  A
O1242     Ni1247   1.905       .  S
O1242      C1252   1.277       .  A
O1243     Ni1248   1.943       .  S
O1243      C1252   1.288       .  A
O1244     Ni1248   1.939       .  S
O1244      C1251   1.285       .  A
O1245     Ni1248   1.906       .  S
O1245      C1250   1.279       .  A
O1246     Ni1248   1.899       .  S
O1246      C1249   1.277       .  A
Ni1247    Ni1248   2.388       .  S
C1249      C1574   1.474       .  S
C1250      C1567   1.482       .  S
C1251      C1627   1.471       .  S
C1252      C1584   1.483       .  S
O1253     Ni1261   1.918       .  S
O1253      C1263   1.283       .  A
O1254     Ni1261   1.926       .  S
O1254      C1264   1.284       .  A
O1255     Ni1261   1.901       .  S
O1255      C1265   1.277       .  A
O1256     Ni1261   1.903       .  S
O1256      C1266   1.277       .  A
O1257     Ni1262   1.944       .  S
O1257      C1266   1.288       .  A
O1258     Ni1262   1.938       .  S
O1258      C1265   1.284       .  A
O1259     Ni1262   1.904       .  S
O1259      C1264   1.278       .  A
O1260     Ni1262   1.896       .  S
O1260      C1263   1.277       .  A
Ni1261    Ni1262   2.390       .  S
C1263      C1604   1.465       .  S
C1264      C1614   1.476       .  S
C1265      C1554   1.470       .  S
C1266      C1544   1.486       .  S
O1267     Ni1275   1.923       .  S
O1267      C1277   1.283       .  A
O1268     Ni1275   1.924       .  S
O1268      C1278   1.284       .  A
O1269     Ni1275   1.905       .  S
O1269      C1279   1.278       .  A
O1270     Ni1275   1.903       .  S
O1270      C1280   1.278       .  A
O1271     Ni1276   1.944       .  S
O1271      C1280   1.288       .  A
O1272     Ni1276   1.935       .  S
O1272      C1279   1.284       .  A
O1273     Ni1276   1.912       .  S
O1273      C1278   1.279       .  A
O1274     Ni1276   1.900       .  S
O1274      C1277   1.278       .  A
Ni1275    Ni1276   2.389       .  S
C1277      C1577   1.467       .  S
C1278      C1564   1.478       .  S
C1279      C1557   1.471       .  S
C1280      C1534   1.487       .  S
O1281     Ni1289   1.921       .  S
O1281      C1291   1.283       .  A
O1282     Ni1289   1.925       .  S
O1282      C1292   1.284       .  A
O1283     Ni1289   1.904       .  S
O1283      C1293   1.278       .  A
O1284     Ni1289   1.904       .  S
O1284      C1294   1.278       .  A
O1285     Ni1290   1.943       .  S
O1285      C1294   1.288       .  A
O1286     Ni1290   1.936       .  S
O1286      C1293   1.284       .  A
O1287     Ni1290   1.911       .  S
O1287      C1292   1.279       .  A
O1288     Ni1290   1.900       .  S
O1288      C1291   1.278       .  A
Ni1289    Ni1290   2.389       .  S
C1291      C1514   1.469       .  S
C1292      C1504   1.479       .  S
C1293      C1524   1.469       .  S
C1294      C1587   1.487       .  S
O1295     Ni1303   1.921       .  S
O1295      C1305   1.283       .  A
O1296     Ni1303   1.930       .  S
O1296      C1306   1.285       .  A
O1297     Ni1303   1.905       .  S
O1297      C1307   1.278       .  A
O1298     Ni1303   1.906       .  S
O1298      C1308   1.278       .  A
O1299     Ni1304   1.942       .  S
O1299      C1308   1.288       .  A
O1300     Ni1304   1.937       .  S
O1300      C1307   1.284       .  A
O1301     Ni1304   1.902       .  S
O1301      C1306   1.277       .  A
O1302     Ni1304   1.895       .  S
O1302      C1305   1.277       .  A
Ni1303    Ni1304   2.390       .  S
C1305      C1477   1.467       .  S
C1306      C1487   1.477       .  S
C1307      C1527   1.470       .  S
C1308      C1497   1.484       .  S
O1309     Ni1317   1.921       .  S
O1309      C1319   1.283       .  A
O1310     Ni1317   1.930       .  S
O1310      C1320   1.285       .  A
O1311     Ni1317   1.908       .  S
O1311      C1321   1.279       .  A
O1312     Ni1317   1.908       .  S
O1312      C1322   1.278       .  A
O1313     Ni1318   1.938       .  S
O1313      C1322   1.287       .  A
O1314     Ni1318   1.933       .  S
O1314      C1321   1.283       .  A
O1315     Ni1318   1.907       .  S
O1315      C1320   1.279       .  A
O1316     Ni1318   1.900       .  S
O1316      C1319   1.278       .  A
Ni1317    Ni1318   2.389       .  S
C1319      C1517   1.469       .  S
C1320      C1507   1.480       .  S
C1321      C1464   1.469       .  S
C1322      C1537   1.481       .  S
O1323     Ni1331   1.920       .  S
O1323      C1333   1.283       .  A
O1324     Ni1331   1.929       .  S
O1324      C1334   1.285       .  A
O1325     Ni1331   1.904       .  S
O1325      C1335   1.278       .  A
O1326     Ni1331   1.908       .  S
O1326      C1336   1.278       .  A
O1327     Ni1332   1.942       .  S
O1327      C1336   1.288       .  A
O1328     Ni1332   1.936       .  S
O1328      C1335   1.284       .  A
O1329     Ni1332   1.903       .  S
O1329      C1334   1.278       .  A
O1330     Ni1332   1.895       .  S
O1330      C1333   1.276       .  A
Ni1331    Ni1332   2.390       .  S
C1333      C1474   1.466       .  S
C1334      C1484   1.477       .  S
C1335      C1467   1.468       .  S
C1336      C1454   1.488       .  S
O1337     Ni1345   1.929       .  S
O1337      C1347   1.285       .  A
O1338     Ni1345   1.934       .  S
O1338      C1348   1.286       .  A
O1339     Ni1345   1.906       .  S
O1339      C1349   1.278       .  A
O1340     Ni1345   1.906       .  S
O1340      C1350   1.278       .  A
O1341     Ni1346   1.943       .  S
O1341      C1350   1.288       .  A
O1342     Ni1346   1.937       .  S
O1342      C1349   1.284       .  A
O1343     Ni1346   1.902       .  S
O1343      C1348   1.278       .  A
O1344     Ni1346   1.896       .  S
O1344      C1347   1.277       .  A
Ni1345    Ni1346   2.388       .  S
C1347      C1434   1.473       .  S
C1348      C1424   1.480       .  S
C1349      C1444   1.472       .  S
C1350      C1547   1.484       .  S
O1351     Ni1359   1.922       .  S
O1351      C1361   1.284       .  A
O1352     Ni1359   1.928       .  S
O1352      C1362   1.285       .  A
O1353     Ni1359   1.898       .  S
O1353      C1363   1.276       .  A
O1354     Ni1359   1.899       .  S
O1354      C1364   1.276       .  A
O1355     Ni1360   1.952       .  S
O1355      C1364   1.289       .  A
O1356     Ni1360   1.944       .  S
O1356      C1363   1.286       .  A
O1357     Ni1360   1.901       .  S
O1357      C1362   1.277       .  A
O1358     Ni1360   1.894       .  S
O1358      C1361   1.276       .  A
Ni1359    Ni1360   2.389       .  S
C1361      C1404   1.466       .  S
C1362      C1414   1.475       .  S
C1363      C1447   1.471       .  S
C1364      C1457   1.487       .  S
O1365     Ni1373   1.927       .  S
O1365      C1375   1.285       .  A
O1366     Ni1373   1.931       .  S
O1366      C1376   1.285       .  A
O1367     Ni1373   1.898       .  S
O1367      C1377   1.276       .  A
O1368     Ni1373   1.901       .  S
O1368      C1378   1.277       .  A
O1369     Ni1374   1.948       .  S
O1369      C1378   1.289       .  A
O1370     Ni1374   1.941       .  S
O1370      C1377   1.285       .  A
O1371     Ni1374   1.906       .  S
O1371      C1376   1.278       .  A
O1372     Ni1374   1.896       .  S
O1372      C1375   1.276       .  A
Ni1373    Ni1374   2.389       .  S
C1375      C1437   1.470       .  S
C1376      C1427   1.480       .  S
C1377      C1394   1.470       .  S
C1378      C1597   1.486       .  S
O1379     Ni1387   1.922       .  S
O1379      C1389   1.283       .  A
O1380     Ni1387   1.930       .  S
O1380      C1390   1.285       .  A
O1381     Ni1387   1.905       .  S
O1381      C1391   1.278       .  A
O1382     Ni1387   1.906       .  S
O1382      C1392   1.278       .  A
O1383     Ni1388   1.943       .  S
O1383      C1392   1.288       .  A
O1384     Ni1388   1.937       .  S
O1384      C1391   1.284       .  A
O1385     Ni1388   1.900       .  S
O1385      C1390   1.277       .  A
O1386     Ni1388   1.894       .  S
O1386      C1389   1.276       .  A
Ni1387    Ni1388   2.389       .  S
C1389      C1407   1.468       .  S
C1390      C1417   1.476       .  S
C1391      C1397   1.471       .  S
C1392      C1494   1.488       .  S
C1393      C1394   1.406       .  A
C1393      C1398   1.406       .  A
C1393      H1399   1.083       .  S
C1394      C1395   1.401       .  A
C1395      C1396   1.396       .  A
C1395      H1400   1.084       .  S
C1396      C1397   1.403       .  A
C1396      H1401   1.084       .  S
C1397      C1398   1.403       .  A
C1398      H1402   1.083       .  S
C1403      C1408   1.394       .  A
C1404      C1405   1.399       .  A
C1405      H1410   1.083       .  S
C1406      C1407   1.407       .  A
C1406      H1411   1.083       .  S
C1407      C1408   1.400       .  A
C1408      H1412   1.083       .  S
C1413      C1414   1.408       .  A
C1413      H1419   1.083       .  S
C1414      C1415   1.401       .  A
C1415      H1420   1.083       .  S
C1416      C1417   1.408   1_455  A
C1416      H1421   1.083       .  S
C1417      C1418   1.402       .  A
C1418      H1422   1.083       .  S
C1423      C1428   1.398       .  A
C1424      C1425   1.402       .  A
C1425      H1430   1.083       .  S
C1426      C1427   1.409       .  A
C1426      H1431   1.083       .  S
C1427      C1428   1.402       .  A
C1428      H1432   1.083       .  S
C1433      C1434   1.408       .  A
C1433      H1439   1.083       .  S
C1434      C1435   1.401       .  A
C1435      H1440   1.083       .  S
C1436      C1437   1.407   1_455  A
C1436      H1441   1.083       .  S
C1437      C1438   1.399       .  A
C1438      H1442   1.083       .  S
C1443      C1444   1.401       .  A
C1443      C1448   1.399       .  A
C1443      H1449   1.084       .  S
C1444      C1445   1.405       .  A
C1445      C1446   1.404       .  A
C1445      H1450   1.083       .  S
C1446      C1447   1.403       .  A
C1446      H1451   1.083       .  S
C1447      C1448   1.404       .  A
C1448      H1452   1.084       .  S
C1453      C1454   1.413       .  A
C1453      C1458   1.406       .  A
C1453      H1459   1.084       .  S
C1454      C1455   1.401       .  A
C1455      C1456   1.400       .  A
C1455      H1460   1.082       .  S
C1456      C1457   1.410       .  A
C1456      H1461   1.084       .  S
C1457      C1458   1.403       .  A
C1458      H1462   1.082       .  S
C1463      C1464   1.405       .  A
C1463      C1468   1.402       .  A
C1463      H1469   1.084       .  S
C1464      C1465   1.401       .  A
C1465      C1466   1.399       .  A
C1465      H1470   1.083       .  S
C1466      C1467   1.404       .  A
C1466      H1471   1.084       .  S
C1467      C1468   1.402       .  A
C1468      H1472   1.083       .  S
C1473      C1474   1.400       .  A
C1473      H1479   1.083       .  S
C1475      C1476   1.394       .  A
C1476      C1477   1.401       .  A
C1476      H1481   1.083       .  S
C1477      C1478   1.406       .  A
C1478      H1482   1.083       .  S
C1483      C1484   1.401       .  A
C1483      C1488   1.398       .  A
C1483      H1489   1.083       .  S
C1484      C1485   1.408       .  A
C1485      C1486   1.398       .  A
C1485      H1490   1.083       .  S
C1486      C1487   1.401       .  A
C1486      H1491   1.083       .  S
C1487      C1488   1.409       .  A
C1488      H1492   1.083       .  S
C1493      C1494   1.411       .  A
C1493      C1498   1.402       .  A
C1493      H1499   1.083       .  S
C1494      C1495   1.403       .  A
C1495      C1496   1.403       .  A
C1495      H1500   1.082       .  S
C1496      C1497   1.410       .  A
C1496      H1501   1.084       .  S
C1497      C1498   1.401       .  A
C1498      H1502   1.082       .  S
C1503      C1504   1.402       .  A
C1503      C1508   1.397       .  A
C1503      H1509   1.083       .  S
C1504      C1505   1.408       .  A
C1505      C1506   1.400       .  A
C1505      H1510   1.083       .  S
C1513      C1514   1.401       .  A
C1513      C1518   1.395       .  A
C1513      H1519   1.083       .  S
C1514      C1515   1.406       .  A
C1515      C1516   1.394       .  A
C1515      H1520   1.083       .  S
C1516      C1517   1.401       .  A
C1516      H1521   1.083       .  S
C1517      C1518   1.406       .  A
C1518      H1522   1.083       .  S
C1523      C1524   1.405       .  A
C1523      C1528   1.402       .  A
C1523      H1529   1.084       .  S
C1524      C1525   1.402       .  A
C1525      C1526   1.399       .  A
C1525      H1530   1.084       .  S
C1526      C1527   1.404       .  A
C1526      H1531   1.084       .  S
C1527      C1528   1.402       .  A
C1528      H1532   1.083       .  S
C1533      C1534   1.404       .  A
C1533      C1538   1.404       .  A
C1533      H1539   1.083       .  S
C1534      C1535   1.411       .  A
C1535      C1536   1.400       .  A
C1535      H1540   1.083       .  S
C1536      C1537   1.400       .  A
C1536      H1541   1.083       .  S
C1537      C1538   1.409       .  A
C1538      H1542   1.083       .  S
C1543      C1544   1.411       .  A
C1543      C1548   1.402       .  A
C1543      H1549   1.084       .  S
C1544      C1545   1.402       .  A
C1545      C1546   1.402       .  A
C1545      H1550   1.082       .  S
C1546      C1547   1.410       .  A
C1546      H1551   1.083       .  S
C1547      C1548   1.401       .  A
C1548      H1552   1.083       .  S
C1553      C1554   1.403       .  A
C1553      C1558   1.406   1_554  A
C1553      H1559   1.083       .  S
C1554      C1555   1.403       .  A
C1555      C1556   1.395   1_554  A
C1555      H1560   1.084       .  S
C1556      C1557   1.400       .  A
C1556      H1561   1.084       .  S
C1557      C1558   1.406       .  A
C1558      H1562   1.083       .  S
C1563      C1564   1.401       .  A
C1563      H1569   1.083       .  S
C1564      C1565   1.407       .  A
C1565      H1570   1.083       .  S
C1566      C1567   1.404       .  A
C1566      H1571   1.083       .  S
C1567      C1568   1.408   1_655  A
C1568      H1572   1.083       .  S
C1573      C1574   1.408       .  A
C1573      C1578   1.396       .  A
C1573      H1579   1.083       .  S
C1574      C1575   1.402       .  A
C1575      C1576   1.395       .  A
C1575      H1580   1.083       .  S
C1576      C1577   1.405       .  A
C1576      H1581   1.083       .  S
C1577      C1578   1.400       .  A
C1578      H1582   1.083       .  S
C1583      C1584   1.401       .  A
C1583      C1588   1.402       .  A
C1583      H1589   1.083       .  S
C1584      C1585   1.410       .  A
C1585      C1586   1.402       .  A
C1585      H1590   1.084       .  S
C1586      C1587   1.403       .  A
C1586      H1591   1.083       .  S
C1587      C1588   1.411       .  A
C1588      H1592   1.083       .  S
C1593      C1594   1.411       .  A
C1593      C1598   1.403       .  A
C1593      H1599   1.083       .  S
C1594      C1595   1.402       .  A
C1595      C1596   1.401       .  A
C1595      H1600   1.082       .  S
C1596      C1597   1.410       .  A
C1596      H1601   1.084       .  S
C1597      C1598   1.401       .  A
C1598      H1602   1.082       .  S
C1603      C1604   1.406       .  A
C1603      H1609   1.083       .  S
C1604      C1605   1.399       .  A
C1605      H1610   1.083       .  S
C1606      C1607   1.406   1_455  A
C1606      H1611   1.083       .  S
C1607      C1608   1.400       .  A
C1608      H1612   1.083       .  S
C1613      C1614   1.402       .  A
C1613      C1618   1.397       .  A
C1613      H1619   1.083       .  S
C1614      C1615   1.408       .  A
C1615      C1616   1.398       .  A
C1615      H1620   1.083       .  S
C1616      C1617   1.402       .  A
C1616      H1621   1.083       .  S
C1617      C1618   1.407       .  A
C1618      H1622   1.083       .  S
C1623      C1624   1.403       .  A
C1623      C1628   1.404   1_554  A
C1623      H1629   1.083       .  S
C1624      C1625   1.404       .  A
C1625      C1626   1.398   1_554  A
C1625      H1630   1.084       .  S
C1626      C1627   1.401       .  A
C1626      H1631   1.084       .  S
C1627      C1628   1.406       .  A
C1628      H1632   1.083       .  S
