geometry optimzed in LAMMPS
_audit_creation_date              2020-12-01 
_audit_creation_method            'lammps2cif' 
_symmetry_space_group_name_H-M    'P1' 
_symmetry_Int_Tables_number       1 
_symmetry_cell_setting            triclinic 
loop_ 
_symmetry_equiv_pos_as_xyz 
  x,y,z 
_cell_length_a                    52.73775511 
_cell_length_b                    52.9749830017588 
_cell_length_c                    52.75554838725948 
_cell_angle_alpha                 90.12194816814956 
_cell_angle_beta                  89.83773566258556 
_cell_angle_gamma                 89.99080783961134 
loop_ 
_atom_site_label 
_atom_site_type_symbol 
_atom_site_fract_x 
_atom_site_fract_y 
_atom_site_fract_z 
_atom_site_charge 
C1          C  0.06064303  0.66938957  0.94019459     0.03700
C2          C  0.08166441  0.68051656  0.95209721    -0.12400
C3          C  0.09197733  0.70337579  0.94312650     0.01200
C4          C  0.08136989  0.71465347  0.92145922    -0.11000
C5          C  0.06038172  0.70371982  0.90925431     0.03700
C6          C  0.05016864  0.68111061  0.91880308    -0.10400
H7          H  0.08901330  0.67215901  0.96930608     0.09300
H8          H  0.08907627  0.73223983  0.91437324     0.06800
H9          H  0.03332114  0.67312859  0.91022157     0.06700
C10         C  0.86844785  0.66813727  0.94479282     0.03700
C11         C  0.88045444  0.67913779  0.92382229    -0.12400
C12         C  0.87169960  0.70206257  0.91374027     0.01200
C13         C  0.85045883  0.71380558  0.92473525    -0.11000
C14         C  0.83805271  0.70294123  0.94563059     0.03700
C15         C  0.84722175  0.68007659  0.95557502    -0.10400
H16         H  0.89759669  0.67059076  0.91637652     0.09300
H17         H  0.84384705  0.73168197  0.91730004     0.06800
H18         H  0.83856218  0.67208633  0.97238485     0.06700
C19         C  0.86931488  0.66832194  0.12903747     0.03700
C20         C  0.84828098  0.68036322  0.11812802    -0.12400
C21         C  0.83858531  0.70293443  0.12845024     0.01200
C22         C  0.85048819  0.71363405  0.14967950    -0.11000
C23         C  0.87200170  0.70229200  0.16045856     0.03700
C24         C  0.88091140  0.67924032  0.15038501    -0.10400
H25         H  0.84016116  0.67268332  0.10091738     0.09300
H26         H  0.84338294  0.73124847  0.15739819     0.06800
H27         H  0.89789116  0.67066913  0.15805365     0.06700
C28         C  0.05935994  0.66801270  0.13100632     0.03700
C29         C  0.04787207  0.67919289  0.15227967    -0.12400
C30         C  0.05882701  0.70042271  0.16402155     0.01200
C31         C  0.08128468  0.71059096  0.15397270    -0.11000
C32         C  0.09277762  0.69982804  0.13247453     0.03700
C33         C  0.08190899  0.67826123  0.12136511    -0.10400
H34         H  0.02987318  0.67194278  0.15902549     0.09300
H35         H  0.08931337  0.72750634  0.16230176     0.06800
H36         H  0.08992303  0.67051585  0.10408749     0.06700
C37         C  0.87124100  0.37074735  0.13026680     0.03700
C38         C  0.84951395  0.35992688  0.11935165    -0.12400
C39         C  0.83803112  0.33845996  0.13011577     0.01200
C40         C  0.84884546  0.32765522  0.15184639    -0.11000
C41         C  0.87098239  0.33776630  0.16258221     0.03700
C42         C  0.88179766  0.35959830  0.15192044    -0.10400
H43         H  0.84208365  0.36779740  0.10195964     0.09300
H44         H  0.84028153  0.31100556  0.16013585     0.06800
H45         H  0.89928480  0.36709577  0.15960994     0.06700
C46         C  0.87151309  0.36647026  0.94334856     0.03700
C47         C  0.88101849  0.35515468  0.92117831    -0.12400
C48         C  0.86946414  0.33353089  0.91073131     0.01200
C49         C  0.84792933  0.32336768  0.92278068    -0.11000
C50         C  0.83855892  0.33399245  0.94540667     0.03700
C51         C  0.85031905  0.35572469  0.95535324    -0.10400
H52         H  0.89789223  0.36290881  0.91238485     0.09300
H53         H  0.83861080  0.30700309  0.91475247     0.06800
H54         H  0.84364502  0.36367207  0.97310031     0.06700
C55         C  0.05765382  0.36580702  0.94079840     0.03700
C56         C  0.07847673  0.35387065  0.95218032    -0.12400
C57         C  0.08761060  0.33060189  0.94309787     0.01200
C58         C  0.07614659  0.31968718  0.92164067    -0.11000
C59         C  0.05530821  0.33141859  0.90985280     0.03700
C60         C  0.04643446  0.35466156  0.91944509    -0.10400
H61         H  0.08683987  0.36218958  0.96897183     0.09300
H62         H  0.08317555  0.30186041  0.91439411     0.06800
H63         H  0.02978331  0.36336735  0.91122818     0.06700
C64         C  0.05761354  0.37007676  0.13248370     0.03700
C65         C  0.07899725  0.35836955  0.12183262    -0.12400
C66         C  0.08890375  0.33603851  0.13226325     0.01200
C67         C  0.07707698  0.32553824  0.15368367    -0.11000
C68         C  0.05540858  0.33677264  0.16436952     0.03700
C69         C  0.04593388  0.35926237  0.15377545    -0.10400
H70         H  0.08707509  0.36604093  0.10458721     0.09300
H71         H  0.08429581  0.30812695  0.16163860     0.06800
H72         H  0.02856277  0.36750404  0.16102220     0.06700
O73         O  0.01560258  0.56374589  0.08307289    -0.74700
O74         O  0.99215799  0.59201818  0.06064266    -0.53600
C75         C  0.00905526  0.58650481  0.07722382     0.79000
O76         O  0.01548464  0.47557006  0.98202520    -0.59300
O77         O  0.99495596  0.44712360  0.00715304    -0.52400
C78         C  0.01033662  0.45277435  0.98909120     0.71000
O79         O  0.01714715  0.56189213  0.98383516    -0.73900
O80         O  0.99265959  0.59043041  0.00517297    -0.54400
C81         C  0.01006958  0.58470057  0.98901215     0.77000
O82         O  0.01617369  0.47750211  0.08615414    -0.59000
O83         O  0.99468547  0.44814549  0.06303571    -0.52100
C84         C  0.01064717  0.45446146  0.08031276     0.73600
Zr85       Zr  0.00416498  0.52006976  0.07185257     2.54700
O86         O  0.05030126  0.52097230  0.07032398    -0.79600
O87         O  0.00449511  0.52073555  0.11802827    -0.93000
Zr88       Zr  0.00452964  0.51877506  0.99606511     2.64700
O89         O  0.05068374  0.51781595  0.99758183    -0.98000
O90         O  0.00403227  0.52021397  0.94995676    -0.80000
O91         O  0.00434956  0.54373697  0.03365573    -0.83400
O92         O  0.00531473  0.49512483  0.03432309    -2.18100
O93         O  0.91744188  0.47605831  0.08602459    -0.66800
O94         O  0.93960695  0.44730793  0.06255500    -0.51300
C95         C  0.92324840  0.45322406  0.07969338     0.72000
O96         O  0.91424562  0.56000933  0.98431752    -0.59700
O97         O  0.93644632  0.58941439  0.00680562    -0.51700
C98         C  0.91949117  0.58299010  0.99058484     0.73800
O99         O  0.91680484  0.47420981  0.98411453    -0.71100
O100        O  0.94057916  0.44612608  0.00656574    -0.49700
C101        C  0.92356001  0.45152835  0.98999982     0.75200
O102        O  0.91459324  0.56163754  0.08430463    -0.66400
O103        O  0.93674600  0.59022313  0.06090121    -0.53600
C104        C  0.92001235  0.58451912  0.07777117     0.73600
Zr105      Zr  0.92826765  0.51886422  0.07183716     2.77500
O106        O  0.88228302  0.51778142  0.06792516    -0.97200
O107        O  0.92751429  0.51932905  0.11795909    -0.78000
Zr108      Zr  0.92884488  0.51753976  0.99598934     2.70100
O109        O  0.88277146  0.51569514  0.99484630    -0.79200
O110        O  0.93264958  0.51805214  0.94999744    -0.98300
Zr111      Zr  0.96548422  0.56666630  0.03355881     2.21500
Zr112      Zr  0.96715820  0.47099551  0.03460189     2.11100
O113        O  0.92842331  0.49400359  0.03426673    -2.47000
O114        O  0.92761197  0.54239260  0.03358438    -0.79000
O115        O  0.96661505  0.49528324  0.07258503    -0.71200
O116        O  0.96623121  0.54249327  0.99537660    -2.32200
O117        O  0.96581465  0.54362949  0.07227798    -2.28400
O118        O  0.96705864  0.49385591  0.99588706    -0.73000
H119        H  0.01998744  0.48421342  0.03448845     0.79000
H120        H  0.96603163  0.55333193  0.98069203     0.80100
H121        H  0.91405404  0.48270229  0.03435166     0.82300
H122        H  0.96554601  0.55482323  0.08672432     0.79900
H123        H  0.99211426  0.50667908  0.94492123     0.43000
H124        H  0.94404115  0.50372865  0.94597606     0.42000
H125        H  0.87736423  0.52246500  0.01151257     0.41600
H126        H  0.87838954  0.50077712  0.06115214     0.39600
H127        H  0.94561769  0.51901338  0.12287466     0.42700
H128        H  0.99778649  0.53754512  0.12280243     0.37500
H129        H  0.05476378  0.51256360  0.05414483     0.43600
H130        H  0.05495280  0.50106455  0.00467648     0.40000
H131        H  0.87601183  0.51740838  0.08562445     0.44900
H132        H  0.02269677  0.52141622  0.12254848     0.43700
H133        H  0.05600062  0.51677839  0.97959193     0.43800
H134        H  0.91580124  0.51256778  0.94385704     0.44100
C135        C  0.61738719  0.92916292  0.13219969     0.03700
C136        C  0.62838268  0.90727879  0.12196176    -0.12400
C137        C  0.65088081  0.89726130  0.13219271     0.01200
C138        C  0.66198069  0.90916801  0.15325825    -0.11000
C139        C  0.65125332  0.93114463  0.16369291     0.03700
C140        C  0.62884798  0.94090804  0.15311400    -0.10400
H141        H  0.62027235  0.89906281  0.10500556     0.09300
H142        H  0.67933560  0.90162954  0.16116705     0.06800
H143        H  0.62077512  0.95822016  0.16057643     0.06700
C144        C  0.61551609  0.92900223  0.94362581     0.03700
C145        C  0.62692023  0.93983585  0.92220948    -0.12400
C146        C  0.64947080  0.92990799  0.91201219     0.01200
C147        C  0.66044475  0.90858447  0.92339682    -0.11000
C148        C  0.64946911  0.89762736  0.94507595     0.03700
C149        C  0.62687486  0.90790296  0.95495102    -0.10400
H150        H  0.61861279  0.95663175  0.91397776     0.09300
H151        H  0.67781079  0.90076122  0.91568085     0.06800
H152        H  0.61889483  0.90043256  0.97233178     0.06700
C153        C  0.61499965  0.11429123  0.94542439     0.03700
C154        C  0.62678330  0.13531659  0.95644511    -0.12400
C155        C  0.64881396  0.14583924  0.94570709     0.01200
C156        C  0.65880377  0.13517092  0.92338026    -0.11000
C157        C  0.64737330  0.11389374  0.91218953     0.03700
C158        C  0.62538571  0.10366922  0.92336825    -0.10400
H159        H  0.61912013  0.14305787  0.97388997     0.09300
H160        H  0.67563246  0.14323205  0.91482402     0.06800
H161        H  0.61705395  0.08658212  0.91577228     0.06700
C162        C  0.61329785  0.11590084  0.13429467     0.03700
C163        C  0.62460574  0.13699893  0.12300395    -0.12400
C164        C  0.64647759  0.14800931  0.13345565     0.01200
C165        C  0.65672348  0.13782391  0.15578053    -0.11000
C166        C  0.64605093  0.11619230  0.16700202     0.03700
C167        C  0.62417567  0.10544977  0.15609268    -0.10400
H168        H  0.61688745  0.14419579  0.10542146     0.09300
H169        H  0.67345546  0.14633589  0.16403523     0.06800
H170        H  0.61637699  0.08807687  0.16358261     0.06700
C171        C  0.31381415  0.11322761  0.94482854     0.03700
C172        C  0.30263795  0.10277945  0.92312783    -0.12400
C173        C  0.28142118  0.11420702  0.91183827     0.01200
C174        C  0.27130688  0.13625031  0.92272061    -0.11000
C175        C  0.28136848  0.14624295  0.94524367     0.03700
C176        C  0.30303329  0.13488233  0.95584875    -0.10400
H177        H  0.31001943  0.08521349  0.91559859     0.09300
H178        H  0.25498020  0.14512009  0.91407851     0.06800
H179        H  0.31071738  0.14201112  0.97349303     0.06700
C180        C  0.31153982  0.92703245  0.94615732     0.03700
C181        C  0.30011735  0.90538391  0.95645178    -0.12400
C182        C  0.27767986  0.89534259  0.94607297     0.01200
C183        C  0.26703321  0.90701309  0.92467006    -0.11000
C184        C  0.27797741  0.92885896  0.91423158     0.03700
C185        C  0.30040193  0.93859735  0.92497276    -0.10400
H186        H  0.30827222  0.89689737  0.97322430     0.09300
H187        H  0.24985709  0.89945295  0.91639083     0.06800
H188        H  0.30844266  0.95598401  0.91776929     0.06700
C189        C  0.31361907  0.92571170  0.13271690     0.03700
C190        C  0.30194409  0.90442386  0.12198814    -0.12400
C191        C  0.27973184  0.89415478  0.13265320     0.01200
C192        C  0.26919534  0.90566631  0.15434727    -0.11000
C193        C  0.28039202  0.92732636  0.16511201     0.03700
C194        C  0.30290412  0.93686553  0.15436043    -0.10400
H195        H  0.30967939  0.89648746  0.10468436     0.09300
H196        H  0.25200311  0.89799789  0.16254811     0.06800
H197        H  0.31135986  0.95392663  0.16192647     0.06700
C198        C  0.31331969  0.11275789  0.13315870     0.03700
C199        C  0.30279102  0.10296075  0.15548895    -0.12400
C200        C  0.28107811  0.11389050  0.16650797     0.01200
C201        C  0.27029114  0.13532254  0.15511685    -0.11000
C202        C  0.28005780  0.14489365  0.13224979     0.03700
C203        C  0.30190901  0.13373341  0.12167504    -0.10400
H204        H  0.31113111  0.08625362  0.16384504     0.09300
H205        H  0.25394499  0.14425355  0.16376019     0.06800
H206        H  0.30939197  0.14059699  0.10382030     0.06700
O207        O  0.50738351  0.07042373  0.08952181    -0.74700
O208        O  0.53618734  0.04840726  0.06609533    -0.53600
C209        C  0.53036364  0.06483308  0.08310820     0.79000
O210        O  0.42199042  0.96971155  0.08990475    -0.59300
O211        O  0.39285715  0.99129967  0.06658023    -0.52400
C212        C  0.39895299  0.97509956  0.08361489     0.71000
O213        O  0.50844599  0.97042113  0.08896153    -0.73900
O214        O  0.53682923  0.99352034  0.06606546    -0.54400
C215        C  0.53129989  0.97671199  0.08276732     0.77000
O216        O  0.42119320  0.07119220  0.08808582    -0.59000
O217        O  0.39244880  0.04657747  0.06730128    -0.52100
C218        C  0.39833278  0.06420619  0.08301972     0.73600
Zr219      Zr  0.46430394  0.05795912  0.07673147     2.54700
O220        O  0.46391378  0.05538182  0.12280559    -0.79600
O221        O  0.46433622  0.10395691  0.07761314    -0.93000
Zr222      Zr  0.46504159  0.98251567  0.07691200     2.64700
O223        O  0.46586923  0.98419241  0.12305050    -0.98000
O224        O  0.46610568  0.93660195  0.07637952    -0.80000
O225        O  0.48904756  0.02049918  0.07724651    -0.83400
O226        O  0.44030575  0.01998520  0.07745390    -2.18100
O227        O  0.42028143  0.06990752  0.98960305    -0.66800
O228        O  0.39174971  0.04590886  0.01141590    -0.51300
C229        C  0.39744760  0.06298453  0.99509411     0.72000
O230        O  0.50758387  0.97070101  0.98796864    -0.59700
O231        O  0.53624485  0.99454732  0.00976091    -0.51700
C232        C  0.53041065  0.97772466  0.99320492     0.73800
O233        O  0.42113526  0.96936596  0.98843843    -0.71100
O234        O  0.39232387  0.99092022  0.01243649    -0.49700
C235        C  0.39815970  0.97471201  0.99517954     0.75200
O236        O  0.50670627  0.07010290  0.98771226    -0.66400
O237        O  0.53582451  0.04870127  0.01121642    -0.53600
C238        C  0.52970938  0.06481957  0.99410497     0.73600
Zr239      Zr  0.46374266  0.05769700  0.00091719     2.77500
O240        O  0.46380583  0.05644670  0.95476314    -0.97200
O241        O  0.46366200  0.10365413  0.00075246    -0.78000
Zr242      Zr  0.46433024  0.98235214  0.00082422     2.70100
O243        O  0.46443841  0.98578290  0.95481716    -0.79200
O244        O  0.46451374  0.93641491  0.99917584    -0.98300
Zr245      Zr  0.51226583  0.02070317  0.03861017     2.21500
Zr246      Zr  0.41638411  0.01934479  0.03921811     2.11100
O247        O  0.43968004  0.01976283  0.00049907    -2.47000
O248        O  0.48846493  0.02024614  0.00036894    -0.79000
O249        O  0.43960922  0.05795089  0.03903642    -0.71200
O250        O  0.48891139  0.98218273  0.03862488    -2.32200
O251        O  0.48826988  0.05878133  0.03861939    -2.28400
O252        O  0.44047631  0.98138530  0.03913959    -0.73000
H253        H  0.42923526  0.01995571  0.09206675     0.79000
H254        H  0.50019099  0.96781886  0.03848743     0.80100
H255        H  0.42848971  0.01958580  0.98604125     0.82300
H256        H  0.49920645  0.07338772  0.03854454     0.79900
H257        H  0.46854076  0.93214590  0.05830518     0.43000
H258        H  0.47072986  0.93230905  0.98192260     0.42000
H259        H  0.47794584  0.99820862  0.95102491     0.41600
H260        H  0.44917042  0.04565911  0.95022153     0.39600
H261        H  0.47401114  0.10850323  0.01561243     0.42700
H262        H  0.48099069  0.10897644  0.07053055     0.37500
H263        H  0.44752435  0.04732564  0.12710304     0.43600
H264        H  0.45036381  0.99359107  0.12789788     0.40000
H265        H  0.45867895  0.07366620  0.94961780     0.44900
H266        H  0.46537326  0.10834242  0.09583819     0.43700
H267        H  0.46251373  0.96661185  0.12844646     0.43800
H268        H  0.47851826  0.93131832  0.01052472     0.44100
C269        C  0.05774802  0.92567550  0.68991330     0.03700
C270        C  0.04640216  0.90433548  0.70082166    -0.12400
C271        C  0.05532448  0.89447184  0.72393632     0.01200
C272        C  0.07650985  0.90577186  0.73549462    -0.11000
C273        C  0.08747334  0.92768703  0.72527314     0.03700
C274        C  0.07808822  0.93731501  0.70235277    -0.10400
H275        H  0.02965094  0.89638785  0.69203780     0.09300
H276        H  0.08404182  0.89794426  0.75285112     0.06800
H277        H  0.08601994  0.95451974  0.69457024     0.06700
C278        C  0.87054825  0.92495363  0.69030533     0.03700
C279        C  0.84874742  0.93664892  0.69999303    -0.12400
C280        C  0.83714000  0.92786843  0.72236269     0.01200
C281        C  0.84757269  0.90685628  0.73488726    -0.11000
C282        C  0.86945919  0.89487671  0.72541330     0.03700
C283        C  0.88079027  0.90411415  0.70305107    -0.10400
H284        H  0.84170164  0.95350198  0.69080043     0.09300
H285        H  0.83877849  0.90000259  0.75213167     0.06800
H286        H  0.89808322  0.89557285  0.69593023     0.06700
C287        C  0.86828807  0.11375842  0.68558769     0.03700
C288        C  0.84642857  0.10356834  0.69675092    -0.12400
C289        C  0.83483127  0.11533717  0.71769406     0.01200
C290        C  0.84525245  0.13781447  0.72730258    -0.11000
C291        C  0.86764698  0.14785456  0.71689185     0.03700
C292        C  0.87881247  0.13584737  0.69583869    -0.10400
H293        H  0.83916436  0.08567896  0.68993609     0.09300
H294        H  0.83631417  0.14712494  0.74328981     0.06800
H295        H  0.89625342  0.14324916  0.68788405     0.06700
C296        C  0.05875362  0.11436163  0.68744054     0.03700
C297        C  0.08022127  0.10443886  0.69944569    -0.12400
C298        C  0.09015029  0.11606999  0.72129217     0.01200
C299        C  0.07886623  0.13832700  0.73042115    -0.11000
C300        C  0.05691529  0.14802723  0.71900030     0.03700
C301        C  0.04713593  0.13603373  0.69732700    -0.10400
H302        H  0.08826634  0.08685923  0.69261072     0.09300
H303        H  0.08654158  0.14749034  0.74709739     0.06800
H304        H  0.02974943  0.14282520  0.68880800     0.06700
C305        C  0.86944859  0.11642731  0.39214416     0.03700
C306        C  0.84712993  0.10638035  0.38186109    -0.12400
C307        C  0.83582121  0.11735390  0.36038221     0.01200
C308        C  0.84671691  0.13924026  0.34993108    -0.11000
C309        C  0.86928117  0.14940301  0.35978624     0.03700
C310        C  0.88060526  0.13762732  0.38080051    -0.10400
H311        H  0.83970370  0.08893750  0.38956507     0.09300
H312        H  0.83805957  0.14789368  0.33350486     0.06800
H313        H  0.89868407  0.14425939  0.38783692     0.06700
C314        C  0.87365567  0.92724475  0.38406513     0.03700
C315        C  0.88375490  0.90584989  0.37203713    -0.12400
C316        C  0.87253797  0.89591821  0.34998205     0.01200
C317        C  0.85110854  0.90797498  0.33982770    -0.11000
C318        C  0.84081857  0.92953062  0.35159812     0.03700
C319        C  0.85212303  0.93887768  0.37384555    -0.10400
H320        H  0.90080233  0.89731106  0.37956980     0.09300
H321        H  0.84262395  0.90080061  0.32257350     0.06800
H322        H  0.84504783  0.95605964  0.38250375     0.06700
C323        C  0.05830224  0.92388033  0.38661598     0.03700
C324        C  0.07927042  0.93554403  0.37525108    -0.12400
C325        C  0.08970032  0.92607145  0.35257594     0.01200
C326        C  0.07852895  0.90477658  0.34117804    -0.11000
C327        C  0.05737270  0.89296787  0.35229964     0.03700
C328        C  0.04759299  0.90246834  0.37525894    -0.10400
H329        H  0.08662623  0.95279933  0.38349066     0.09300
H330        H  0.08589269  0.89772190  0.32332259     0.06800
H331        H  0.03063427  0.89423943  0.38343625     0.06700
C332        C  0.05521083  0.11303433  0.38669012     0.03700
C333        C  0.04348217  0.13418753  0.37595812    -0.12400
C334        C  0.05252917  0.14452867  0.35307146     0.01200
C335        C  0.07375421  0.13353844  0.34121902    -0.11000
C336        C  0.08560057  0.11228262  0.35171962     0.03700
C337        C  0.07600873  0.10202618  0.37435241    -0.10400
H338        H  0.02639821  0.14154783  0.38468024     0.09300
H339        H  0.08085862  0.14132810  0.32360154     0.06800
H340        H  0.08417938  0.08490062  0.38201825     0.06700
O341        O  0.01539817  0.96682659  0.58079590    -0.74700
O342        O  0.99299656  0.99014518  0.60947769    -0.53600
C343        C  0.00977745  0.97350697  0.60367065     0.79000
O344        O  0.01469568  0.06866062  0.49540054    -0.59300
O345        O  0.99201243  0.04569062  0.46684761    -0.52400
C346        C  0.00857769  0.06249468  0.47247540     0.71000
O347        O  0.01488515  0.06686571  0.58227728    -0.73900
O348        O  0.99182216  0.04431460  0.61086339    -0.54400
C349        C  0.00866513  0.06092647  0.60523993     0.77000
O350        O  0.01419945  0.96649958  0.49486828    -0.59000
O351        O  0.99261644  0.99029977  0.46627932    -0.52100
C352        C  0.00868987  0.97294151  0.47196887     0.73600
Zr353      Zr  0.00233264  0.97951723  0.53797210     2.54700
O354        O  0.04844699  0.98124337  0.53747040    -0.79600
O355        O  0.00200125  0.93355717  0.53699802    -0.93000
Zr356      Zr  0.00286343  0.05509459  0.53865997     2.64700
O357        O  0.04899060  0.05310673  0.53914227    -0.98000
O358        O  0.00294471  0.10102859  0.53979392    -0.80000
O359        O  0.00301398  0.01713308  0.56263280    -0.83400
O360        O  0.00333829  0.01746501  0.51401150    -2.18100
O361        O  0.91533548  0.96747239  0.49413819    -0.66800
O362        O  0.93840842  0.99035228  0.46566632    -0.51300
C363        C  0.92179543  0.97354817  0.47128188     0.72000
O364        O  0.91356342  0.06654144  0.58139163    -0.59700
O365        O  0.93698599  0.04475165  0.61033806    -0.51700
C366        C  0.91991917  0.06096518  0.60426524     0.73800
O367        O  0.91487823  0.06826771  0.49574661    -0.71100
O368        O  0.93789591  0.04623831  0.46655629    -0.49700
C369        C  0.92121193  0.06289929  0.47274950     0.75200
O370        O  0.91435096  0.96716646  0.58139245    -0.66400
O371        O  0.93732867  0.98939730  0.61033194    -0.53600
C372        C  0.92053555  0.97281379  0.60443593     0.73600
Zr373      Zr  0.92624465  0.97998887  0.53791696     2.77500
O374        O  0.88029012  0.98471374  0.53810750    -0.97200
O375        O  0.92265890  0.93420441  0.53688318    -0.78000
Zr376      Zr  0.92685071  0.05506930  0.53848518     2.70100
O377        O  0.88070417  0.05346150  0.53846995    -0.79200
O378        O  0.92677750  0.10103255  0.53931713    -0.98300
Zr379      Zr  0.96452051  0.01713588  0.58617939     2.21500
Zr380      Zr  0.96490395  0.01784040  0.49043974     2.11100
O381        O  0.92616344  0.01769501  0.51369276    -2.47000
O382        O  0.92604109  0.01740233  0.56276436    -0.79000
O383        O  0.96440849  0.97945171  0.51376854    -0.71200
O384        O  0.96472631  0.05553711  0.56275836    -2.32200
O385        O  0.96424838  0.97894198  0.56215100    -2.28400
O386        O  0.96496319  0.05589918  0.51436850    -0.73000
H387        H  0.01794049  0.01743974  0.50288363     0.79000
H388        H  0.96464344  0.06999459  0.57390798     0.80100
H389        H  0.91173461  0.01784014  0.50246101     0.82300
H390        H  0.96422080  0.96436528  0.57310156     0.79900
H391        H  0.98554515  0.10584648  0.53473432     0.43000
H392        H  0.93679081  0.10605747  0.52424635     0.42000
H393        H  0.87622202  0.04432359  0.52271913     0.41600
H394        H  0.87532823  0.98472711  0.52002777     0.39600
H395        H  0.93855823  0.92811340  0.54470698     0.42700
H396        H  0.99358102  0.92847942  0.55298932     0.37500
H397        H  0.05260403  0.99747175  0.54581991     0.43600
H398        H  0.05366910  0.04458159  0.52307750     0.40000
H399        H  0.87386007  0.96844308  0.54472483     0.44900
H400        H  0.01997986  0.92869051  0.53927509     0.43700
H401        H  0.05450221  0.07081655  0.53680711     0.43800
H402        H  0.90911911  0.10576382  0.53510407     0.44100
C403        C  0.93843657  0.29147954  0.23286935    -0.10300
C404        C  0.96166440  0.29977865  0.22333841    -0.04100
C405        C  0.98459813  0.28968243  0.23160183    -0.10300
C406        C  0.98456637  0.27069623  0.25041010     0.10700
C407        C  0.96108194  0.26241021  0.26080402    -0.02100
C408        C  0.93788307  0.27282510  0.25199536     0.10500
C409        C  0.91490675  0.26442789  0.26258856    -0.12100
C410        C  0.91462819  0.24602559  0.28150609    -0.12100
C411        C  0.93729643  0.23519697  0.29024481     0.10500
C412        C  0.96078163  0.24346672  0.27980802    -0.02100
C413        C  0.00724260  0.25990088  0.25915558    -0.12200
C414        C  0.00694382  0.24116666  0.27770686    -0.12200
C415        C  0.98396565  0.23268078  0.28821363     0.10700
C416        C  0.98341487  0.21380335  0.30709317    -0.10300
C417        C  0.96028006  0.20618692  0.31732601    -0.04100
C418        C  0.93731302  0.21637763  0.30925921    -0.10300
H419        H  0.89697384  0.27222409  0.25643677     0.07900
H420        H  0.89649552  0.24031931  0.28927349     0.07900
H421        H  0.02540949  0.26592071  0.25171336     0.08100
H422        H  0.02489690  0.23344681  0.28388838     0.08100
H423        H  0.96185777  0.31381274  0.20835861     0.04600
H424        H  0.96010370  0.19132478  0.33148116     0.04600
C425        C  0.23692302  0.99812648  0.23543345    -0.10300
C426        C  0.24721335  0.02120831  0.22782775    -0.04100
C427        C  0.23734625  0.04422650  0.23627050    -0.10300
C428        C  0.21678757  0.04439328  0.25351528     0.10700
C429        C  0.20660467  0.02111647  0.26216215    -0.02100
C430        C  0.21663289  0.99787058  0.25305999     0.10500
C431        C  0.20622751  0.97510026  0.26191586    -0.12100
C432        C  0.18634939  0.97508523  0.27943413    -0.12100
C433        C  0.17596227  0.99784067  0.28843556     0.10500
C434        C  0.18603646  0.02109989  0.27958089    -0.02100
C435        C  0.20619013  0.06715501  0.26231936    -0.12200
C436        C  0.18575552  0.06712898  0.27912694    -0.12200
C437        C  0.17544520  0.04434351  0.28797828     0.10700
C438        C  0.15490759  0.04405865  0.30519965    -0.10300
C439        C  0.14568113  0.02107717  0.31421504    -0.04100
C440        C  0.15577305  0.99808468  0.30612822    -0.10300
H441        H  0.21361981  0.95709131  0.25557188     0.07900
H442        H  0.17913741  0.95706676  0.28587965     0.07900
H443        H  0.21369521  0.08520774  0.25633109     0.08100
H444        H  0.17820763  0.08513054  0.28532489     0.08100
H445        H  0.26224721  0.02129112  0.21372767     0.04600
H446        H  0.12984969  0.02107284  0.32742338     0.04600
C447        C  0.15366254  0.28498486  0.01619672    -0.10300
C448        C  0.14464919  0.29408031  0.03935794    -0.04100
C449        C  0.15434059  0.28556575  0.06242076    -0.10300
C450        C  0.17371828  0.26710113  0.06258312     0.10700
C451        C  0.18359071  0.25807222  0.03916212    -0.02100
C452        C  0.17360161  0.26711849  0.01585680     0.10500
C453        C  0.18393784  0.25825316  0.99294074    -0.12100
C454        C  0.20371543  0.24074790  0.99280973    -0.12100
C455        C  0.21361137  0.23123761  0.01558878     0.10500
C456        C  0.20345057  0.23993676  0.03903410    -0.02100
C457        C  0.18358161  0.25759275  0.08538366    -0.12200
C458        C  0.20282311  0.23948152  0.08525952    -0.12200
C459        C  0.21303671  0.23044378  0.06233856     0.10700
C460        C  0.23279995  0.21235290  0.06194307    -0.10300
C461        C  0.24266153  0.20429158  0.03874229    -0.04100
C462        C  0.23354893  0.21335843  0.01568745    -0.10300
H463        H  0.17692980  0.26499692  0.97491001     0.07900
H464        H  0.21124830  0.23472663  0.97467125     0.07900
H465        H  0.17648031  0.26413709  0.10351862     0.08100
H466        H  0.20985210  0.23278783  0.10329780     0.08100
H467        H  0.12933526  0.30778571  0.03944970     0.04600
H468        H  0.25729465  0.18986822  0.03860967     0.04600
C469        C  0.69506684  0.04728942  0.23401207    -0.10300
C470        C  0.68613872  0.02424379  0.22478579    -0.04100
C471        C  0.69602390  0.00125795  0.23298546    -0.10300
C472        C  0.71540112  0.00104658  0.25144471     0.10700
C473        C  0.72431575  0.02430364  0.26156516    -0.02100
C474        C  0.71424474  0.04755972  0.25270298     0.10500
C475        C  0.72336322  0.07030637  0.26296012    -0.12100
C476        C  0.74194444  0.07029124  0.28174261    -0.12100
C477        C  0.75217680  0.04753391  0.29078640     0.10500
C478        C  0.74339181  0.02429935  0.28051131    -0.02100
C479        C  0.72590648  0.97830859  0.26018131    -0.12200
C480        C  0.74475240  0.97831370  0.27867429    -0.12200
C481        C  0.75368825  0.00105347  0.28911373     0.10700
C482        C  0.77250772  0.00125719  0.30813984    -0.10300
C483        C  0.78043051  0.02419088  0.31846867    -0.04100
C484        C  0.77079302  0.04723876  0.31004968    -0.10300
H485        H  0.71594921  0.08830440  0.25672444     0.07900
H486        H  0.74812776  0.08828397  0.28927388     0.07900
H487        H  0.71945739  0.96030354  0.25290203     0.08100
H488        H  0.75210807  0.96030471  0.28494914     0.08100
H489        H  0.67176349  0.02421862  0.21008798     0.04600
H490        H  0.79516175  0.02414543  0.33280771     0.04600
C491        C  0.98855196  0.74838464  0.23077499    -0.10300
C492        C  0.96567896  0.73934302  0.22110473    -0.04100
C493        C  0.94235305  0.74910069  0.22890085    -0.10300
C494        C  0.94164833  0.76850401  0.24738255     0.10700
C495        C  0.96475386  0.77756269  0.25788666    -0.02100
C496        C  0.98833489  0.76748672  0.24953579     0.10500
C497        C  0.01093926  0.77675013  0.26011402    -0.12100
C498        C  0.01050136  0.79592822  0.27829393    -0.12100
C499        C  0.98743798  0.80639787  0.28659210     0.10500
C500        C  0.96430252  0.79700937  0.27647004    -0.02100
C501        C  0.91859587  0.77900211  0.25568017    -0.12200
C502        C  0.91814437  0.79803299  0.27402845    -0.12200
C503        C  0.94073879  0.80730552  0.28461677     0.10700
C504        C  0.94054626  0.82658043  0.30322009    -0.10300
C505        C  0.96346268  0.83553967  0.31292154    -0.04100
C506        C  0.98677116  0.82612337  0.30468142    -0.10300
H507        H  0.02915529  0.76920642  0.25435907     0.07900
H508        H  0.02839161  0.80249475  0.28587183     0.07900
H509        H  0.90070247  0.77245519  0.24810257     0.08100
H510        H  0.89991344  0.80544102  0.27990173     0.08100
H511        H  0.96608340  0.72500501  0.20636516     0.04600
H512        H  0.96318169  0.85086847  0.32662099     0.04600
C513        C  0.23008752  0.99906401  0.84709910    -0.10300
C514        C  0.24049365  0.02198192  0.85496139    -0.04100
C515        C  0.23156885  0.04507180  0.84593818    -0.10300
C516        C  0.21190514  0.04552210  0.82783062     0.10700
C517        C  0.20139375  0.02238367  0.81915636    -0.02100
C518        C  0.21034746  0.99902418  0.82895419     0.10500
C519        C  0.19951789  0.97641282  0.82018520    -0.12100
C520        C  0.18036978  0.97665506  0.80195604    -0.12100
C521        C  0.17135629  0.99952588  0.79192841     0.10500
C522        C  0.18185646  0.02263437  0.80070111    -0.02100
C523        C  0.20269416  0.06839868  0.81802665    -0.12200
C524        C  0.18347025  0.06864052  0.79996378    -0.12200
C525        C  0.17290523  0.04600648  0.79098430     0.10700
C526        C  0.15378423  0.04600866  0.77230116    -0.10300
C527        C  0.14392906  0.02314482  0.76363893    -0.04100
C528        C  0.15231038  0.00003536  0.77311620    -0.10300
H529        H  0.20597650  0.95833842  0.82720950     0.07900
H530        H  0.17278047  0.95873848  0.79562596     0.07900
H531        H  0.21047078  0.08631995  0.82410411     0.08100
H532        H  0.17710443  0.08672509  0.79287700     0.08100
H533        H  0.25526144  0.02188890  0.86926331     0.04600
H534        H  0.12903717  0.02335702  0.74946736     0.04600
C535        C  0.98381478  0.28944704  0.83978902    -0.10300
C536        C  0.96061518  0.29870429  0.84861827    -0.04100
C537        C  0.93753092  0.29024539  0.83880382    -0.10300
C538        C  0.93747447  0.27224389  0.81897526     0.10700
C539        C  0.96092437  0.26292453  0.80943791    -0.02100
C540        C  0.98419909  0.27145065  0.81996617     0.10500
C541        C  0.00713820  0.26178931  0.81042161    -0.12100
C542        C  0.00729342  0.24392694  0.79096506    -0.12100
C543        C  0.98450962  0.23506495  0.78042541     0.10500
C544        C  0.96108734  0.24470793  0.78964940    -0.02100
C545        C  0.91470487  0.26338253  0.80843164    -0.12200
C546        C  0.91487209  0.24548364  0.78899812    -0.12200
C547        C  0.93781369  0.23580016  0.77946376     0.10700
C548        C  0.93819528  0.21743736  0.75996350    -0.10300
C549        C  0.96141385  0.20853032  0.75083470    -0.04100
C550        C  0.98443311  0.21680895  0.76084636    -0.10300
H551        H  0.02517223  0.26806368  0.81790054     0.07900
H552        H  0.02545471  0.23715948  0.78416127     0.07900
H553        H  0.89655936  0.27032001  0.81510550     0.08100
H554        H  0.89684351  0.23934507  0.78140062     0.08100
H555        H  0.96049452  0.31206883  0.86424822     0.04600
H556        H  0.96155160  0.19379867  0.73649327     0.04600
C557        C  0.15955541  0.74755366  0.06210636    -0.10300
C558        C  0.15150301  0.73759454  0.03893996    -0.04100
C559        C  0.15969532  0.74756090  0.01583267    -0.10300
C560        C  0.17753083  0.76753609  0.01572159     0.10700
C561        C  0.18648433  0.77745763  0.03912599    -0.02100
C562        C  0.17718261  0.76769205  0.06242987     0.10500
C563        C  0.18578826  0.77823852  0.08533109    -0.12100
C564        C  0.20350167  0.79782856  0.08542909    -0.12100
C565        C  0.21322840  0.80756191  0.06263296     0.10500
C566        C  0.20452488  0.79740094  0.03921895    -0.02100
C567        C  0.18673987  0.77772345  0.99291308    -0.12200
C568        C  0.20458505  0.79717122  0.99299171    -0.12200
C569        C  0.21376544  0.80720270  0.01588497     0.10700
C570        C  0.23212361  0.82666475  0.01617141    -0.10300
C571        C  0.24081077  0.83604764  0.03934646    -0.04100
C572        C  0.23159067  0.82707079  0.06247864    -0.10300
H573        H  0.17903533  0.77122412  0.10339083     0.07900
H574        H  0.20970522  0.80518147  0.10354389     0.07900
H575        H  0.18041775  0.77048746  0.97479229     0.08100
H576        H  0.21130358  0.80418920  0.97492241     0.08100
H577        H  0.13739048  0.72267389  0.03890167     0.04600
H578        H  0.25459424  0.85127026  0.03937084     0.04600
C579        C  0.76816067  0.29159426  0.01661137    -0.10300
C580        C  0.77636784  0.30129623  0.03978574    -0.04100
C581        C  0.76716596  0.29223895  0.06286993    -0.10300
C582        C  0.74839748  0.27312237  0.06299152     0.10700
C583        C  0.73937743  0.26335292  0.03954334    -0.02100
C584        C  0.74943693  0.27247627  0.01625542     0.10500
C585        C  0.74044641  0.26236613  0.99333020    -0.12100
C586        C  0.72192366  0.24356733  0.99316358    -0.12100
C587        C  0.71178823  0.23416903  0.01592150     0.10500
C588        C  0.72057911  0.24413013  0.03937239    -0.02100
C589        C  0.73841784  0.26356704  0.08576138    -0.12200
C590        C  0.71995817  0.24466445  0.08559417    -0.12200
C591        C  0.71083384  0.23467972  0.06264803     0.10700
C592        C  0.69212603  0.21553925  0.06222092    -0.10300
C593        C  0.68344739  0.20630867  0.03901192    -0.04100
C594        C  0.69298047  0.21512901  0.01596838    -0.10300
H595        H  0.74757670  0.26907095  0.97529809     0.07900
H596        H  0.71550661  0.23649815  0.97501235     0.07900
H597        H  0.74477136  0.27075547  0.10389146     0.08100
H598        H  0.71277177  0.23798795  0.10361795     0.08100
H599        H  0.79128542  0.31542402  0.03988528     0.04600
H600        H  0.66953639  0.19119820  0.03889530     0.04600
C601        C  0.98831519  0.74920486  0.84327673    -0.10300
C602        C  0.96576430  0.73915875  0.85278573    -0.04100
C603        C  0.94213489  0.74806430  0.84499662    -0.10300
C604        C  0.94071742  0.76717567  0.82637068     0.10700
C605        C  0.96347391  0.77726030  0.81608424    -0.02100
C606        C  0.98739563  0.76834742  0.82466625     0.10500
C607        C  0.00966172  0.77884341  0.81452365    -0.12100
C608        C  0.00854478  0.79783673  0.79630039    -0.12100
C609        C  0.98511914  0.80707339  0.78768475     0.10500
C610        C  0.96232374  0.79669859  0.79762136    -0.02100
C611        C  0.91727505  0.77652789  0.81788044    -0.12200
C612        C  0.91614062  0.79563538  0.79972148    -0.12200
C613        C  0.93840838  0.80601950  0.78943335     0.10700
C614        C  0.93757604  0.82547831  0.77111663    -0.10300
C615        C  0.96019796  0.83510801  0.76127226    -0.04100
C616        C  0.98380297  0.82643310  0.76934999    -0.10300
H617        H  0.02814480  0.77234709  0.82056923     0.07900
H618        H  0.02623062  0.80523272  0.78896171     0.07900
H619        H  0.89961265  0.76908048  0.82523253     0.08100
H620        H  0.89766520  0.80222022  0.79374736     0.08100
H621        H  0.96663679  0.72495458  0.86756809     0.04600
H622        H  0.95942162  0.85036681  0.74758419     0.04600
C623        C  0.69216786  0.04534045  0.84136145    -0.10300
C624        C  0.68332010  0.02225505  0.85047508    -0.04100
C625        C  0.69267573  0.99932463  0.84138026    -0.10300
C626        C  0.71121991  0.99923229  0.82197143     0.10700
C627        C  0.71993419  0.02256437  0.81190704    -0.02100
C628        C  0.71049779  0.04575128  0.82174525     0.10500
C629        C  0.71953922  0.06858842  0.81167879    -0.12100
C630        C  0.73759849  0.06873029  0.79228979    -0.12100
C631        C  0.74729970  0.04603543  0.78236172     0.10500
C632        C  0.73839555  0.02270946  0.79224958    -0.02100
C633        C  0.72117515  0.97655360  0.81233040    -0.12200
C634        C  0.73940298  0.97670083  0.79312178    -0.12200
C635        C  0.74827470  0.99952772  0.78285755     0.10700
C636        C  0.76679686  0.99986023  0.76341619    -0.10300
C637        C  0.77469527  0.02291598  0.75335418    -0.04100
C638        C  0.76561753  0.04592216  0.76270923    -0.10300
H639        H  0.71255794  0.08653838  0.81864364     0.07900
H640        H  0.74382198  0.08679876  0.78501806     0.07900
H641        H  0.71483006  0.95849261  0.81952086     0.08100
H642        H  0.74639252  0.95873418  0.78621541     0.08100
H643        H  0.66958521  0.02213860  0.86585191     0.04600
H644        H  0.78937532  0.02300170  0.73888315     0.04600
C645        C  0.76965176  0.75135972  0.01397850    -0.10300
C646        C  0.77791610  0.74127823  0.03693623    -0.04100
C647        C  0.77009066  0.75120072  0.06017902    -0.10300
C648        C  0.75241934  0.77127693  0.06071213     0.10700
C649        C  0.74311039  0.78123077  0.03750733    -0.02100
C650        C  0.75197356  0.77144048  0.01399941     0.10500
C651        C  0.74293992  0.78193342  0.99129218    -0.12100
C652        C  0.72527947  0.80158492  0.99160234    -0.12100
C653        C  0.71612729  0.81144937  0.01463225     0.10500
C654        C  0.72522911  0.80127670  0.03782660    -0.02100
C655        C  0.74380384  0.78158683  0.08372689    -0.12200
C656        C  0.72613036  0.80117323  0.08404950    -0.12200
C657        C  0.71655086  0.81118443  0.06136159     0.10700
C658        C  0.69838167  0.83078698  0.06147719    -0.10300
C659        C  0.68930057  0.84023119  0.03856307    -0.04100
C660        C  0.69797290  0.83112744  0.01525871    -0.10300
H661        H  0.74932763  0.77482905  0.97310244     0.07900
H662        H  0.71871271  0.80892515  0.97364067     0.07900
H663        H  0.75051017  0.77437536  0.10168871     0.08100
H664        H  0.71988903  0.80834396  0.10225960     0.08100
H665        H  0.79200284  0.72632157  0.03669569     0.04600
H666        H  0.67558770  0.85552396  0.03887803     0.04600
C667        C  0.00602696  0.20028302  0.31652079    -0.04900
C668        C  0.01300799  0.20348694  0.34194752    -0.32300
C669        C  0.02893159  0.18605725  0.35390515     0.36900
C670        C  0.03832562  0.16510634  0.34027152    -0.05300
C671        C  0.03250244  0.16284532  0.31433325    -0.32200
C672        C  0.01642522  0.18020444  0.30248899     0.36800
H673        H  0.00480756  0.21873071  0.35298315     0.17200
O674        O  0.03507977  0.18954246  0.37893662    -0.59700
H675        H  0.03920314  0.14673535  0.30354570     0.17200
O676        O  0.00908611  0.17605224  0.27791109    -0.59800
H677        H  0.02198313  0.18475405  0.26737644     0.44200
H678        H  0.01912465  0.18676767  0.38854793     0.44200
C679        C  0.14173943  0.06695916  0.31436375    -0.04900
C680        C  0.14538186  0.07451091  0.33954178    -0.32300
C681        C  0.12815226  0.09073384  0.35141837     0.36900
C682        C  0.10664960  0.09937448  0.33816871    -0.05300
C683        C  0.10420816  0.09344625  0.31227837    -0.32200
C684        C  0.12163742  0.07733704  0.30035715     0.36800
H685        H  0.16073528  0.06647288  0.35049231     0.17200
O686        O  0.13174024  0.09683763  0.37642974    -0.59700
H687        H  0.08784989  0.09988641  0.30172651     0.17200
O688        O  0.11749389  0.06991445  0.27579375    -0.59800
H689        H  0.12789021  0.08150995  0.26531663     0.44200
H690        H  0.13822823  0.11440318  0.37632882     0.44200
C691        C  0.02125153  0.07535675  0.45073114    -0.04900
C692        C  0.03273913  0.09914897  0.45389382    -0.32300
C693        C  0.04367713  0.11182533  0.43317394     0.36900
C694        C  0.04388282  0.10045529  0.40903477    -0.05300
C695        C  0.03294022  0.07662356  0.40591062    -0.32200
C696        C  0.02143538  0.06422310  0.42626450     0.36800
H697        H  0.03283960  0.10817244  0.47233753     0.17200
O698        O  0.05466946  0.13500306  0.43680338    -0.59700
H699        H  0.03299521  0.06768998  0.38740435     0.17200
O700        O  0.01099423  0.04087506  0.42202283    -0.59800
H701        H  0.99413795  0.04424137  0.41443865     0.44200
H702        H  0.04078286  0.14738482  0.43439500     0.44200
C703        C  0.14328922  0.97507186  0.31596143    -0.04900
C704        C  0.14696227  0.96812262  0.34131858    -0.32300
C705        C  0.13083279  0.95062531  0.35298022     0.36900
C706        C  0.11015637  0.94038562  0.33944871    -0.05300
C707        C  0.10762333  0.94618158  0.31356899    -0.32200
C708        C  0.12408188  0.96331965  0.30182644     0.36800
H709        H  0.16163484  0.97721062  0.35241032     0.17200
O710        O  0.13478201  0.94454369  0.37792087    -0.59700
H711        H  0.09187227  0.93869341  0.30277960     0.17200
O712        O  0.11983436  0.97023697  0.27716862    -0.59800
H713        H  0.12842652  0.95714802  0.26678341     0.44200
H714        H  0.14302831  0.92772180  0.37755902     0.44200
C715        C  0.04336351  0.87293506  0.33842847    -0.04900
C716        C  0.03524266  0.87754531  0.31351657    -0.32300
C717        C  0.01827662  0.86111334  0.30151017     0.36900
C718        C  0.00956931  0.83942519  0.31416691    -0.05300
C719        C  0.01882724  0.83395321  0.33844132    -0.32200
C720        C  0.03571364  0.85046538  0.35054202     0.36800
H721        H  0.04073056  0.89479318  0.30395581     0.17200
O722        O  0.00899648  0.86722598  0.27804095    -0.59700
H723        H  0.01186289  0.81756019  0.34854028     0.17200
O724        O  0.04369091  0.84506900  0.37464849    -0.59800
H725        H  0.06097408  0.83796855  0.37257405     0.44200
H726        H  0.99368392  0.87760475  0.28138669     0.44200
C727        C  0.02172854  0.95979802  0.45045993    -0.04900
C728        C  0.01894361  0.96933255  0.42569815    -0.32300
C729        C  0.03092471  0.95781200  0.40500251     0.36900
C730        C  0.04568700  0.93604835  0.40853542    -0.05300
C731        C  0.04845919  0.92617874  0.43299030    -0.32200
C732        C  0.03687060  0.93797257  0.45392102     0.36800
H733        H  0.00753851  0.98596466  0.42222519     0.17200
O734        O  0.02761935  0.96763642  0.38120033    -0.59700
H735        H  0.05983473  0.90940100  0.43588550     0.17200
O736        O  0.04008247  0.92761703  0.47749572    -0.59800
H737        H  0.05640724  0.93451498  0.48372268     0.44200
H738        H  0.04080600  0.98087268  0.37948846     0.44200
C739        C  0.82014431  0.94403431  0.33926528    -0.04900
C740        C  0.82264880  0.95091558  0.31365112    -0.32300
C741        C  0.80576574  0.96802505  0.30258439     0.36900
C742        C  0.78591990  0.97840052  0.31707768    -0.05300
C743        C  0.78234962  0.97032338  0.34213081    -0.32200
C744        C  0.79929489  0.95327566  0.35329226     0.36800
H745        H  0.83868075  0.94426135  0.30262127     0.17200
O746        O  0.81019406  0.97628433  0.27835499    -0.59700
H747        H  0.76717332  0.97832234  0.35347427     0.17200
O748        O  0.79552246  0.94590978  0.37795077    -0.59800
H749        H  0.79887791  0.96111864  0.38841964     0.44200
H750        H  0.80059455  0.96454503  0.26730619     0.44200
C751        C  0.88482537  0.87442033  0.33651698    -0.04900
C752        C  0.88989810  0.87613386  0.31037576    -0.32300
C753        C  0.90608815  0.85875635  0.29844511     0.36900
C754        C  0.91732802  0.83931050  0.31263534    -0.05300
C755        C  0.91043836  0.83623356  0.33813213    -0.32200
C756        C  0.89407077  0.85337690  0.35000096     0.36800
H757        H  0.88283914  0.89199315  0.29955467     0.17200
O758        O  0.91226146  0.86198483  0.27338468    -0.59700
H759        H  0.91906005  0.82137975  0.34926812     0.17200
O760        O  0.88835794  0.85014213  0.37516561    -0.59800
H761        H  0.87107041  0.84278449  0.37540537     0.44200
H762        H  0.92721688  0.87333250  0.27337191     0.44200
C763        C  0.88628999  0.93825544  0.40663539    -0.04900
C764        C  0.87261764  0.94147758  0.42929314    -0.32300
C765        C  0.88400065  0.95241140  0.45068012     0.36900
C766        C  0.90944704  0.96054741  0.44959123    -0.05300
C767        C  0.92302509  0.95740482  0.42678668    -0.32200
C768        C  0.91174499  0.94619364  0.40555091     0.36800
H769        H  0.85297840  0.93555912  0.43035663     0.17200
O770        O  0.86983585  0.95567705  0.47227225    -0.59700
H771        H  0.94253071  0.96370112  0.42536032     0.17200
O772        O  0.92535195  0.94421852  0.38342505    -0.59800
H773        H  0.93667030  0.92946528  0.38580975     0.44200
H774        H  0.86235763  0.97278467  0.47073920     0.44200
C775        C  0.91426257  0.20491280  0.32053093    -0.04900
C776        C  0.91045105  0.20704216  0.34679185    -0.32300
C777        C  0.89486409  0.18992082  0.35976548     0.36900
C778        C  0.88260023  0.17034179  0.34636978    -0.05300
C779        C  0.88494479  0.16955413  0.31977756    -0.32200
C780        C  0.90059874  0.18664938  0.30689312     0.36800
H781        H  0.92107135  0.22091601  0.35752643     0.17200
O782        O  0.89199515  0.19225062  0.38554404    -0.59700
H783        H  0.87599015  0.15458349  0.30903034     0.17200
O784        O  0.90455488  0.18363714  0.28136099    -0.59800
H785        H  0.88970977  0.19165656  0.27315723     0.44200
H786        H  0.90892527  0.18863769  0.39285636     0.44200
C787        C  0.78232162  0.07020341  0.32124505    -0.04900
C788        C  0.77927748  0.07482262  0.34727626    -0.32300
C789        C  0.79526226  0.09168649  0.36000909     0.36900
C790        C  0.81508487  0.10385729  0.34678848    -0.05300
C791        C  0.81674718  0.10064324  0.32032097    -0.32200
C792        C  0.80060139  0.08392755  0.30759484     0.36800
H793        H  0.76535536  0.06422085  0.35801161     0.17200
O794        O  0.79208576  0.09517903  0.38558448    -0.59700
H795        H  0.83178659  0.10966865  0.30965332     0.17200
O796        O  0.80404331  0.07976053  0.28214195    -0.59800
H797        H  0.81656019  0.06582669  0.28099807     0.44200
H798        H  0.78106173  0.11026338  0.38718919     0.44200
C799        C  0.88260677  0.10317298  0.41306281    -0.04900
C800        C  0.90703923  0.09349228  0.40899825    -0.32300
C801        C  0.91980172  0.08039041  0.42814609     0.36900
C802        C  0.90819913  0.07683487  0.45205381    -0.05300
C803        C  0.88380427  0.08689866  0.45616637    -0.32200
C804        C  0.87100584  0.09985263  0.43688578     0.36800
H805        H  0.91618019  0.09589776  0.39074015     0.17200
O806        O  0.94366916  0.07128365  0.42323380    -0.59700
H807        H  0.87445420  0.08447277  0.47431263     0.17200
O808        O  0.84720085  0.10924920  0.44153554    -0.59800
H809        H  0.84988082  0.12709123  0.44658607     0.44200
H810        H  0.95541243  0.08467756  0.42912289     0.44200
C811        C  0.04235488  0.16879291  0.73114288    -0.04900
C812        C  0.03252871  0.18837334  0.71616456    -0.32300
C813        C  0.01514197  0.20563612  0.72628328     0.36900
C814        C  0.00747934  0.20361349  0.75177195    -0.05300
C815        C  0.01845312  0.18513395  0.76719423    -0.32200
C816        C  0.03560190  0.16765004  0.75705676     0.36800
H817        H  0.03747694  0.18956961  0.69625489     0.17200
O818        O  0.00432194  0.22325231  0.71066059    -0.59700
H819        H  0.01224294  0.18308143  0.78668176     0.17200
O820        O  0.04403989  0.14839052  0.77218745    -0.59800
H821        H  0.03171932  0.13446258  0.76971053     0.44200
H822        H  0.01213179  0.23956968  0.71556109     0.44200
C823        C  0.11001874  0.10296742  0.73621638    -0.04900
C824        C  0.13131469  0.09280224  0.72381518    -0.32300
C825        C  0.14745803  0.07601827  0.73636092     0.36900
C826        C  0.14241533  0.06917242  0.76161897    -0.05300
C827        C  0.12242751  0.08080940  0.77467403    -0.32200
C828        C  0.10619802  0.09754466  0.76217989     0.36800
H829        H  0.13465410  0.09685443  0.70396179     0.17200
O830        O  0.16687650  0.06477919  0.72319174    -0.59700
H831        H  0.11819015  0.07535443  0.79401517     0.17200
O832        O  0.08549610  0.10677175  0.77498875    -0.59800
H833        H  0.07157248  0.09473485  0.77132059     0.44200
H834        H  0.18227688  0.07441165  0.72794048     0.44200
C835        C  0.04658240  0.10044330  0.66642770    -0.04900
C836        C  0.02654643  0.08399032  0.67176572    -0.32300
C837        C  0.01424738  0.07071461  0.65229623     0.36900
C838        C  0.02171562  0.07420281  0.62666386    -0.05300
C839        C  0.04190971  0.09091065  0.62156210    -0.32200
C840        C  0.05434390  0.10380844  0.64119338     0.36800
H841        H  0.02034324  0.08145388  0.69120274     0.17200
O842        O  0.99432499  0.05519464  0.65850127    -0.59700
H843        H  0.04815649  0.09408433  0.60225840     0.17200
O844        O  0.07364133  0.12018993  0.63547168    -0.59800
H845        H  0.08932744  0.10990146  0.63628005     0.44200
H846        H  0.00105609  0.04286622  0.67089418     0.44200
C847        C  0.88108577  0.16928335  0.72920698    -0.04900
C848        C  0.89169103  0.18847346  0.71416193    -0.32300
C849        C  0.90883088  0.20583504  0.72449844     0.36900
C850        C  0.91521770  0.20452397  0.75033445    -0.05300
C851        C  0.90317791  0.18667700  0.76580516    -0.32200
C852        C  0.88636252  0.16902382  0.75545003     0.36800
H853        H  0.88769545  0.18919174  0.69404096     0.17200
O854        O  0.92011461  0.22336983  0.70904079    -0.59700
H855        H  0.90834719  0.18517671  0.78561261     0.17200
O856        O  0.87682543  0.15043714  0.77082256    -0.59800
H857        H  0.88895712  0.13619985  0.76931868     0.44200
H858        H  0.93424770  0.21431249  0.70054326     0.44200
C859        C  0.81338012  0.10245769  0.73065957    -0.04900
C860        C  0.79382475  0.09178828  0.71609726    -0.32300
C861        C  0.77633863  0.07515928  0.72700864     0.36900
C862        C  0.77815755  0.06896383  0.75285399    -0.05300
C863        C  0.79633871  0.08112674  0.76788337    -0.32200
C864        C  0.81395452  0.09770081  0.75699415     0.36800
H865        H  0.79291577  0.09533379  0.69589722     0.17200
O866        O  0.75877542  0.06348181  0.71187753    -0.59700
H867        H  0.79817583  0.07619237  0.78771801     0.17200
O868        O  0.83283822  0.10745757  0.77191767    -0.59800
H869        H  0.84697708  0.09516082  0.77073894     0.44200
H870        H  0.74357643  0.07448347  0.71262101     0.44200
C871        C  0.88126573  0.10027163  0.66449866    -0.04900
C872        C  0.90745198  0.09563501  0.66597766    -0.32300
C873        C  0.92017138  0.08279700  0.64654631     0.36900
C874        C  0.90678172  0.07437396  0.62507045    -0.05300
C875        C  0.88067809  0.07921518  0.62339252    -0.32200
C876        C  0.86784224  0.09177336  0.64302180     0.36800
H877        H  0.91809497  0.10182450  0.68239193     0.17200
O878        O  0.94579780  0.07895863  0.64855704    -0.59700
H879        H  0.87012266  0.07299015  0.60693101     0.17200
O880        O  0.84239330  0.09654988  0.64059684    -0.59800
H881        H  0.83390968  0.08002243  0.64307506     0.44200
H882        H  0.95374050  0.09360827  0.63996369     0.44200
C883        C  0.88171448  0.87370389  0.73934039    -0.04900
C884        C  0.89010764  0.85240385  0.72578019    -0.32300
C885        C  0.90611510  0.83461921  0.73706522     0.36900
C886        C  0.91400415  0.83789334  0.76229250    -0.05300
C887        C  0.90384934  0.85783347  0.77660935    -0.32200
C888        C  0.88785131  0.87573997  0.76533176     0.36800
H889        H  0.88536362  0.85028256  0.70592006     0.17200
O890        O  0.91590632  0.81538882  0.72261335    -0.59700
H891        H  0.91011703  0.86077542  0.79593680     0.17200
O892        O  0.88013007  0.89620123  0.77933921    -0.59800
H893        H  0.89361988  0.90904203  0.77703583     0.44200
H894        H  0.90331504  0.80154746  0.72388372     0.44200
C895        C  0.81593387  0.94247180  0.73395749    -0.04900
C896        C  0.81743980  0.94970324  0.75957279    -0.32300
C897        C  0.80007215  0.96687854  0.76996574     0.36900
C898        C  0.78080740  0.97712573  0.75476273    -0.05300
C899        C  0.77824791  0.96877965  0.72965081    -0.32200
C900        C  0.79555356  0.95147699  0.71922908     0.36800
H901        H  0.83304151  0.94322963  0.77118895     0.17200
O902        O  0.80344684  0.97531318  0.79432106    -0.59700
H903        H  0.76347742  0.97658368  0.71777123     0.17200
O904        O  0.79249887  0.94349343  0.69465159    -0.59800
H905        H  0.79606688  0.95845579  0.68394473     0.44200
H906        H  0.79527491  0.96241051  0.80520670     0.44200
C907        C  0.88380660  0.93601478  0.66810326    -0.04900
C908        C  0.87298666  0.93456743  0.64387744    -0.32300
C909        C  0.88482683  0.94592513  0.62287558     0.36900
C910        C  0.90775655  0.95943990  0.62595165    -0.05300
C911        C  0.91843609  0.96075200  0.65041989    -0.32200
C912        C  0.90673691  0.94913615  0.67124353     0.36800
H913        H  0.85517681  0.92471642  0.64127605     0.17200
O914        O  0.87318178  0.94457630  0.59971150    -0.59700
H915        H  0.93594477  0.97096328  0.65357758     0.17200
O916        O  0.91723448  0.95173682  0.69486988    -0.59800
H917        H  0.92973213  0.93782276  0.69623161     0.44200
H918        H  0.87920551  0.92853414  0.59206843     0.44200
C919        C  0.13977752  0.97721223  0.76290614    -0.04900
C920        C  0.11997416  0.96611962  0.77667537    -0.32300
C921        C  0.10358162  0.94878366  0.76509680     0.36900
C922        C  0.10708107  0.94216719  0.73935903    -0.05300
C923        C  0.12791996  0.95222368  0.72613372    -0.32200
C924        C  0.14393880  0.96990230  0.73760111     0.36800
H925        H  0.11613875  0.97226105  0.79591572     0.17200
O926        O  0.08270685  0.94058092  0.77827464    -0.59700
H927        H  0.13100776  0.94735548  0.70640621     0.17200
O928        O  0.16290445  0.98089783  0.72360665    -0.59800
H929        H  0.15452238  0.99453433  0.71386374     0.44200
H930        H  0.08918022  0.92763354  0.79016483     0.44200
C931        C  0.04078243  0.87412098  0.73699601    -0.04900
C932        C  0.03058838  0.85406721  0.72276936    -0.32300
C933        C  0.01331504  0.83717060  0.73365643     0.36900
C934        C  0.00630093  0.83981187  0.75925076    -0.05300
C935        C  0.01758109  0.85872360  0.77395902    -0.32200
C936        C  0.03448439  0.87596268  0.76304534     0.36800
H937        H  0.03519568  0.85212304  0.70283600     0.17200
O938        O  0.00208918  0.81916033  0.71873269    -0.59700
H939        H  0.01187317  0.86121935  0.79355689     0.17200
O940        O  0.04317132  0.89556814  0.77764866    -0.59800
H941        H  0.03133196  0.90973815  0.77440108     0.44200
H942        H  0.01246821  0.80374071  0.72109745     0.44200
C943        C  0.04654260  0.93769469  0.66716376    -0.04900
C944        C  0.03889025  0.96298106  0.66857532    -0.32300
C945        C  0.02735579  0.97478241  0.64794853     0.36900
C946        C  0.02340215  0.96142990  0.62509822    -0.05300
C947        C  0.03183711  0.93628015  0.62337492    -0.32200
C948        C  0.04323093  0.92438467  0.64424947     0.36800
H949        H  0.04145084  0.97356540  0.68598546     0.17200
O950        O  0.02045568  0.99963213  0.65021562    -0.59700
H951        H  0.02911098  0.92565970  0.60602366     0.17200
O952        O  0.05108489  0.89979656  0.64207147    -0.59800
H953        H  0.06929349  0.90079509  0.63742948     0.44200
H954        H  0.00379672  0.99930677  0.65897822     0.44200
C955        C  0.24708830  0.06720261  0.22358536    -0.04900
C956        C  0.23172923  0.07921798  0.20567269    -0.32300
C957        C  0.24220964  0.09587493  0.18797937     0.36900
C958        C  0.26851032  0.10104781  0.18826550    -0.05300
C959        C  0.28338040  0.09067192  0.20775132    -0.32200
C960        C  0.27287890  0.07374460  0.22520428     0.36800
H961        H  0.21191883  0.07404264  0.20403550     0.17200
O962        O  0.22689472  0.10518946  0.16923244    -0.59700
H963        H  0.30352198  0.09460001  0.20858965     0.17200
O964        O  0.28833716  0.06216011  0.24250744    -0.59800
H965        H  0.28838660  0.07352922  0.25746279     0.44200
H966        H  0.22806258  0.09276255  0.15519051     0.44200
C967        C  0.26658361  0.16523862  0.11821276    -0.04900
C968        C  0.28059830  0.18493143  0.10717445    -0.32300
C969        C  0.26911795  0.20201835  0.09058171     0.36900
C970        C  0.24317219  0.19974656  0.08478220    -0.05300
C971        C  0.22876802  0.18107237  0.09689479    -0.32200
C972        C  0.24022927  0.16388042  0.11351495     0.36800
H973        H  0.30079087  0.18643247  0.11059316     0.17200
O974        O  0.28382151  0.21967804  0.07853006    -0.59700
H975        H  0.20897269  0.17863665  0.09200679     0.17200
O976        O  0.22604191  0.14428991  0.12288790    -0.59800
H977        H  0.21533876  0.15183339  0.13641043     0.44200
H978        H  0.28223178  0.23517882  0.08897718     0.44200
C979        C  0.33535409  0.10015049  0.12096600    -0.04900
C980        C  0.35739140  0.11401919  0.11553356    -0.32300
C981        C  0.37829677  0.10253079  0.10369874     0.36900
C982        C  0.37710705  0.07689994  0.09645923    -0.05300
C983        C  0.35497809  0.06311433  0.10186541    -0.32200
C984        C  0.33437493  0.07442085  0.11424520     0.36800
H985        H  0.35840540  0.13383281  0.12056954     0.17200
O986        O  0.39928463  0.11683138  0.09825025    -0.59700
H987        H  0.35364442  0.04337790  0.09657966     0.17200
O988        O  0.31287257  0.06048562  0.11859570    -0.59800
H989        H  0.31705795  0.04931890  0.13306129     0.44200
H990        H  0.40946769  0.11684645  0.11402674     0.44200
C991        C  0.26779907  0.94149690  0.18617202    -0.04900
C992        C  0.28253123  0.95145197  0.20601906    -0.32300
C993        C  0.27206433  0.96830307  0.22367521     0.36900
C994        C  0.24639886  0.97534147  0.22193547    -0.05300
C995        C  0.23121483  0.96422070  0.20321344    -0.32200
C996        C  0.24170881  0.94762852  0.18528270     0.36800
H997        H  0.30253665  0.94697451  0.20721775     0.17200
O998        O  0.28747848  0.97918372  0.24151136    -0.59700
H999        H  0.21158174  0.96993379  0.20129874     0.17200
O1000       O  0.22666733  0.93912900  0.16589106    -0.59800
H1001       H  0.22937150  0.95124235  0.15183104     0.44200
H1002       H  0.28543850  0.96862085  0.25687660     0.44200
C1003       C  0.26605714  0.87344779  0.11918514    -0.04900
C1004       C  0.24016264  0.87633710  0.11350565    -0.32300
C1005       C  0.22790915  0.85968744  0.09684142     0.36900
C1006       C  0.24147316  0.83971468  0.08560063    -0.05300
C1007       C  0.26673794  0.83559628  0.09275630    -0.32200
C1008       C  0.27904860  0.85221644  0.10945005     0.36800
H1009       H  0.22980062  0.89253498  0.12063579     0.17200
O1010       O  0.20337010  0.86447505  0.08981037    -0.59700
H1011       H  0.27739011  0.82028306  0.08419836     0.17200
O1012       O  0.30384018  0.84776923  0.11594164    -0.59800
H1013       H  0.31383227  0.85042436  0.10021200     0.44200
H1014       H  0.19275611  0.85583752  0.10268469     0.44200
C1015       C  0.33574950  0.93769729  0.12006310    -0.04900
C1016       C  0.35868683  0.94087340  0.13317167    -0.32300
C1017       C  0.37954627  0.95275980  0.12160836     0.36900
C1018       C  0.37764982  0.96180459  0.09651671    -0.05300
C1019       C  0.35448325  0.95886367  0.08365674    -0.32200
C1020       C  0.33377921  0.94685833  0.09513091     0.36800
H1021       H  0.36038170  0.93417948  0.15248553     0.17200
O1022       O  0.40142036  0.95594891  0.13523893    -0.59700
H1023       H  0.35233376  0.96589772  0.06451710     0.17200
O1024       O  0.31124733  0.94528411  0.08227996    -0.59800
H1025       H  0.31355921  0.93134918  0.06990306     0.44200
H1026       H  0.39939821  0.97242290  0.14398581     0.44200
C1027       C  0.26444023  0.94312148  0.89406230    -0.04900
C1028       C  0.23880582  0.94966680  0.89762868    -0.32300
C1029       C  0.22655146  0.96616700  0.88090841     0.36900
C1030       C  0.23978627  0.97619094  0.86005944    -0.05300
C1031       C  0.26483628  0.96840114  0.85551552    -0.32200
C1032       C  0.27720931  0.95206148  0.87235670     0.36800
H1033       H  0.22869654  0.94321934  0.91431118     0.17200
O1034       O  0.20248290  0.97432094  0.88646615    -0.59700
H1035       H  0.27531446  0.97623064  0.83968033     0.17200
O1036       O  0.30184128  0.94510999  0.86762415    -0.59800
H1037       H  0.31214777  0.96041250  0.87097362     0.44200
H1038       H  0.19106986  0.96225035  0.87775169     0.44200
C1039       C  0.26438460  0.87424646  0.95932611    -0.04900
C1040       C  0.27851525  0.85395387  0.96908922    -0.32300
C1041       C  0.26753818  0.83678467  0.98606198     0.36900
C1042       C  0.24191001  0.83932325  0.99307567    -0.05300
C1043       C  0.22719017  0.85814771  0.98171043    -0.32200
C1044       C  0.23820619  0.87565573  0.96512279     0.36800
H1045       H  0.29850072  0.85218959  0.96461564     0.17200
O1046       O  0.28227334  0.81829303  0.99668680    -0.59700
H1047       H  0.20754623  0.86052645  0.98730922     0.17200
O1048       O  0.22359534  0.89520044  0.95640891    -0.59800
H1049       H  0.22604489  0.90907973  0.96880864     0.44200
H1050       H  0.29067595  0.82643800  0.01137763     0.44200
C1051       C  0.33398850  0.93864028  0.95876431    -0.04900
C1052       C  0.35661077  0.94254936  0.94517793    -0.32300
C1053       C  0.37783635  0.95373802  0.95679458     0.36900
C1054       C  0.37663948  0.96151770  0.98241278    -0.05300
C1055       C  0.35386785  0.95769218  0.99584332    -0.32200
C1056       C  0.33283208  0.94624169  0.98435142     0.36800
H1057       H  0.35780885  0.93690342  0.92545880     0.17200
O1058       O  0.39938630  0.95752892  0.94270832    -0.59700
H1059       H  0.35228778  0.96364947  0.01543961     0.17200
O1060       O  0.31074710  0.94372062  0.99792846    -0.59800
H1061       H  0.31369117  0.92935910  0.00958729     0.44200
H1062       H  0.39747543  0.97464481  0.93537141     0.44200
C1063       C  0.26799924  0.16687838  0.95914948    -0.04900
C1064       C  0.28208608  0.18623272  0.97072447    -0.32300
C1065       C  0.27048261  0.20328015  0.98746361     0.36900
C1066       C  0.24433404  0.20142995  0.99259805    -0.05300
C1067       C  0.22987779  0.18340438  0.97964687    -0.32200
C1068       C  0.24146328  0.16608125  0.96320944     0.36800
H1069       H  0.30237165  0.18746297  0.96766647     0.17200
O1070       O  0.28498936  0.22102051  0.99966947    -0.59700
H1071       H  0.20985937  0.18141657  0.98389141     0.17200
O1072       O  0.22688343  0.14729719  0.95283357    -0.59800
H1073       H  0.22812300  0.13295144  0.96481551     0.44200
H1074       H  0.29361142  0.21181664  0.01354852     0.44200
C1075       C  0.26781310  0.10112080  0.89096540    -0.04900
C1076       C  0.24146726  0.09741365  0.89302479    -0.32300
C1077       C  0.22879439  0.08099634  0.87657333     0.36900
C1078       C  0.24245673  0.06796035  0.85776477    -0.05300
C1079       C  0.26827295  0.07325377  0.85423275    -0.32200
C1080       C  0.28100178  0.08976226  0.87062876     0.36800
H1081       H  0.23093525  0.10582124  0.90855213     0.17200
O1082       O  0.20363331  0.07582430  0.88066593    -0.59700
H1083       H  0.27890784  0.06335029  0.83968627     0.17200
O1084       O  0.30634844  0.09444009  0.86691090    -0.59800
H1085       H  0.31509421  0.07815478  0.86999668     0.44200
H1086       H  0.19430005  0.08947797  0.87187110     0.44200
C1087       C  0.33554641  0.10034071  0.95711416    -0.04900
C1088       C  0.33325876  0.07500097  0.96451532    -0.32300
C1089       C  0.35323291  0.06260623  0.97675838     0.36900
C1090       C  0.37617814  0.07549505  0.98165439    -0.05300
C1091       C  0.37864904  0.10065102  0.97359999    -0.32200
C1092       C  0.35848731  0.11312790  0.96167679     0.36800
H1093       H  0.31575169  0.06486490  0.96107377     0.17200
O1094       O  0.35010449  0.03785390  0.98372916    -0.59700
H1095       H  0.39612571  0.11086199  0.97693923     0.17200
O1096       O  0.36164253  0.13757776  0.95377265    -0.59800
H1097       H  0.35985340  0.14803234  0.96929088     0.44200
H1098       H  0.35689693  0.02780551  0.96934924     0.44200
C1099       C  0.65963826  0.16857085  0.11945747    -0.04900
C1100       C  0.64534995  0.18832202  0.10893020    -0.32300
C1101       C  0.65630028  0.20513176  0.09163354     0.36900
C1102       C  0.68209905  0.20287445  0.08517222    -0.05300
C1103       C  0.69685507  0.18431101  0.09695536    -0.32200
C1104       C  0.68581398  0.16706620  0.11379304     0.36800
H1105       H  0.62528629  0.18992163  0.11311298     0.17200
O1106       O  0.64140461  0.22298297  0.08016486    -0.59700
H1107       H  0.71656772  0.18197816  0.09158488     0.17200
O1108       O  0.70039455  0.14771728  0.12300465    -0.59800
H1109       H  0.69739444  0.13331626  0.11134585     0.44200
H1110       H  0.63264038  0.21396437  0.06621251     0.44200
C1111       C  0.68437345  0.07019675  0.22200615    -0.04900
C1112       C  0.65835478  0.07505471  0.22463742    -0.32300
C1113       C  0.64590920  0.09144297  0.20803451     0.36900
C1114       C  0.65941803  0.10297916  0.18803231    -0.05300
C1115       C  0.68589661  0.09961238  0.18674974    -0.32200
C1116       C  0.69833537  0.08329832  0.20349227     0.36800
H1117       H  0.64737359  0.06489112  0.23869330     0.17200
O1118       O  0.62030536  0.09505755  0.21081382    -0.59700
H1119       H  0.69678806  0.10817767  0.17160528     0.17200
O1120       O  0.72378735  0.07884425  0.20040774    -0.59800
H1121       H  0.72491540  0.06463631  0.18818189     0.44200
H1122       H  0.61862472  0.11036991  0.22152462     0.44200
C1123       C  0.59187190  0.10307986  0.12154899    -0.04900
C1124       C  0.59615708  0.09082223  0.09840942    -0.32300
C1125       C  0.57651223  0.07819993  0.08588289     0.36900
C1126       C  0.55166139  0.07813168  0.09616248    -0.05300
C1127       C  0.54741822  0.09081612  0.11930990    -0.32200
C1128       C  0.56735446  0.10294086  0.13209649     0.36800
H1129       H  0.61497901  0.09082971  0.09010246     0.17200
O1130       O  0.58182072  0.06656777  0.06323947    -0.59700
H1131       H  0.52866113  0.09111731  0.12772369     0.17200
O1132       O  0.56255591  0.11524251  0.15449983    -0.59800
H1133       H  0.56467129  0.10225923  0.16784147     0.44200
H1134       H  0.58894626  0.04986675  0.06783187     0.44200
C1135       C  0.66184479  0.16696125  0.95903888    -0.04900
C1136       C  0.64732062  0.18692313  0.96900202    -0.32300
C1137       C  0.65793857  0.20428590  0.98595382     0.36900
C1138       C  0.68359680  0.20222350  0.99284612    -0.05300
C1139       C  0.69867290  0.18359035  0.98139925    -0.32200
C1140       C  0.68803300  0.16602541  0.96455796     0.36800
H1141       H  0.62729411  0.18827881  0.96467592     0.17200
O1142       O  0.64282958  0.22249850  0.99671260    -0.59700
H1143       H  0.71831176  0.18148356  0.98700180     0.17200
O1144       O  0.70279555  0.14653628  0.95579534    -0.59800
H1145       H  0.71356035  0.15401443  0.94231809     0.44200
H1146       H  0.63331235  0.21379870  0.01038422     0.44200
C1147       C  0.65983065  0.10060752  0.89058770    -0.04900
C1148       C  0.68595618  0.09531668  0.89172816    -0.32300
C1149       C  0.69739306  0.07914317  0.87404521     0.36900
C1150       C  0.68276531  0.06810028  0.85474682    -0.05300
C1151       C  0.65715916  0.07478385  0.85240782    -0.32200
C1152       C  0.64562816  0.09089975  0.87013059     0.36800
H1153       H  0.69721811  0.10233297  0.90737445     0.17200
O1154       O  0.72222454  0.07221170  0.87731081    -0.59700
H1155       H  0.64570176  0.06622437  0.83769506     0.17200
O1156       O  0.62043052  0.09684581  0.86751317    -0.59800
H1157       H  0.61105202  0.08085734  0.87033937     0.44200
H1158       H  0.73218022  0.08446308  0.86717155     0.44200
C1159       C  0.59286755  0.10229495  0.95797143    -0.04900
C1160       C  0.56999889  0.09913579  0.94475301    -0.32300
C1161       C  0.54903022  0.08747272  0.95630995     0.36900
C1162       C  0.55091167  0.07830033  0.98134901    -0.05300
C1163       C  0.57388184  0.08155701  0.99443692    -0.32200
C1164       C  0.59460916  0.09350761  0.98305939     0.36800
H1165       H  0.56837808  0.10584758  0.92543789     0.17200
O1166       O  0.52696801  0.08490514  0.94284846    -0.59700
H1167       H  0.57582515  0.07484469  0.01369320     0.17200
O1168       O  0.61664030  0.09621439  0.99655810    -0.59800
H1169       H  0.62681755  0.08098360  0.99250421     0.44200
H1170       H  0.52908179  0.06914980  0.93288053     0.44200
C1171       C  0.66304262  0.87741395  0.95914136    -0.04900
C1172       C  0.68891641  0.88047908  0.96480179    -0.32300
C1173       C  0.70126416  0.86392035  0.98135572     0.36900
C1174       C  0.68781693  0.84386030  0.99245517    -0.05300
C1175       C  0.66244198  0.83981080  0.98564273    -0.32200
C1176       C  0.65007796  0.85627696  0.96900975     0.36800
H1177       H  0.69920671  0.89669030  0.95767140     0.17200
O1178       O  0.72575584  0.86888604  0.98845682    -0.59700
H1179       H  0.65180306  0.82463663  0.99439175     0.17200
O1180       O  0.62500128  0.85219107  0.96351877    -0.59800
H1181       H  0.62488292  0.84515569  0.94608762     0.44200
H1182       H  0.73646472  0.86032334  0.97557405     0.44200
C1183       C  0.66226597  0.94331620  0.89075908    -0.04900
C1184       C  0.64777136  0.95220920  0.87029738    -0.32300
C1185       C  0.65823725  0.96877789  0.85249492     0.36900
C1186       C  0.68368771  0.97640168  0.85467015    -0.05300
C1187       C  0.69872530  0.96617328  0.87394241    -0.32200
C1188       C  0.68817502  0.94998241  0.89209629     0.36800
H1189       H  0.62788132  0.94730814  0.86884660     0.17200
O1190       O  0.64290456  0.97907710  0.83428458    -0.59700
H1191       H  0.71815198  0.97244658  0.87616544     0.17200
O1192       O  0.70284154  0.94255968  0.91217637    -0.59800
H1193       H  0.70011244  0.95559583  0.92543126     0.44200
H1194       H  0.64631434  0.96908361  0.81873227     0.44200
C1195       C  0.59313605  0.94131028  0.95550889    -0.04900
C1196       C  0.59415567  0.96715470  0.96133650    -0.32300
C1197       C  0.57380616  0.97922223  0.97336303     0.36900
C1198       C  0.55165851  0.96553663  0.97943391    -0.05300
C1199       C  0.55034007  0.93982008  0.97298964    -0.32200
C1200       C  0.57092774  0.92766332  0.96129485     0.36800
H1201       H  0.61103622  0.97797952  0.95695329     0.17200
O1202       O  0.57545923  0.00460289  0.97839061    -0.59700
H1203       H  0.53351988  0.92897453  0.97754102     0.17200
O1204       O  0.56916185  0.90245376  0.95562016    -0.59800
H1205       H  0.56239447  0.90177347  0.93811413     0.44200
H1206       H  0.58585406  0.00595592  0.99397490     0.44200
C1207       C  0.66432647  0.94523432  0.18427805    -0.04900
C1208       C  0.65033534  0.95408986  0.20519516    -0.32300
C1209       C  0.66125173  0.97070950  0.22274020     0.36900
C1210       C  0.68661368  0.97843432  0.21974790    -0.05300
C1211       C  0.70111295  0.96833224  0.19988610    -0.32200
C1212       C  0.69015049  0.95201391  0.18210015     0.36800
H1213       H  0.63056221  0.94894300  0.20733415     0.17200
O1214       O  0.64673515  0.98017945  0.24217673    -0.59700
H1215       H  0.72045643  0.97465145  0.19705320     0.17200
O1216       O  0.70435732  0.94435687  0.16166783    -0.59800
H1217       H  0.70150055  0.95735852  0.14847877     0.44200
H1218       H  0.63738945  0.99463897  0.23479137     0.44200
C1219       C  0.68878736  0.84318950  0.08475816    -0.04900
C1220       C  0.66376261  0.83868212  0.09256230    -0.32300
C1221       C  0.65160903  0.85516808  0.10952195     0.36900
C1222       C  0.66451242  0.87662933  0.11868515    -0.05300
C1223       C  0.69026503  0.87983566  0.11240908    -0.32200
C1224       C  0.70239728  0.86325610  0.09561570     0.36800
H1225       H  0.65316839  0.82319028  0.08433098     0.17200
O1226       O  0.62707461  0.85039237  0.11683448    -0.59700
H1227       H  0.70056250  0.89620571  0.11916328     0.17200
O1228       O  0.72679712  0.86819927  0.08806757    -0.59800
H1229       H  0.73762317  0.85802022  0.09949348     0.44200
H1230       H  0.61662617  0.85281237  0.10142455     0.44200
C1231       C  0.59528666  0.94110534  0.11960182    -0.04900
C1232       C  0.57186286  0.92856854  0.11852117    -0.32300
C1233       C  0.55080335  0.93982835  0.10677399     0.36900
C1234       C  0.55299875  0.96402091  0.09567330    -0.05300
C1235       C  0.57672586  0.97619417  0.09641916    -0.32200
C1236       C  0.59761740  0.96501779  0.10830095     0.36800
H1237       H  0.56987957  0.91002495  0.12692413     0.17200
O1238       O  0.52833126  0.92683379  0.10600022    -0.59700
H1239       H  0.57915264  0.99462030  0.08787309     0.17200
O1240       O  0.62057422  0.97719125  0.10791398    -0.59800
H1241       H  0.61972640  0.98966527  0.12193200     0.44200
H1242       H  0.52906898  0.91678590  0.09013003     0.44200
C1243       C  0.04097448  0.32343649  0.18455624    -0.04900
C1244       C  0.03464383  0.29781852  0.18127437    -0.32300
C1245       C  0.01803242  0.28571643  0.19807988     0.36900
C1246       C  0.00763626  0.29914955  0.21863624    -0.05300
C1247       C  0.01522610  0.32416965  0.22290995    -0.32200
C1248       C  0.03172021  0.33636396  0.20603671     0.36800
H1249       H  0.04135460  0.28757563  0.16476837     0.17200
O1250       O  0.01020231  0.26156344  0.19291461    -0.59700
H1251       H  0.00710653  0.33474872  0.23855092     0.17200
O1252       O  0.03853776  0.36096648  0.21052695    -0.59800
H1253       H  0.02303277  0.37109015  0.20742129     0.44200
H1254       H  0.02206149  0.25051531  0.20232477     0.44200
C1255       C  0.10932929  0.32199328  0.11875321    -0.04900
C1256       C  0.10636549  0.29597278  0.11418819    -0.32300
C1257       C  0.12268212  0.28313574  0.09763207     0.36900
C1258       C  0.14245146  0.29620708  0.08552573    -0.05300
C1259       C  0.14667916  0.32166687  0.09151917    -0.32200
C1260       C  0.13043732  0.33453652  0.10813385     0.36800
H1261       H  0.09029102  0.28589136  0.12201124     0.17200
O1262       O  0.11806806  0.25827586  0.09197297    -0.59700
H1263       H  0.16171374  0.33196842  0.08206249     0.17200
O1264       O  0.13464225  0.35966203  0.11281985    -0.59800
H1265       H  0.14446265  0.36013684  0.12881195     0.44200
H1266       H  0.10571422  0.25858848  0.07783528     0.44200
C1267       C  0.04579928  0.39184965  0.11942816    -0.04900
C1268       C  0.04562392  0.41587593  0.13069045    -0.32300
C1269       C  0.03485607  0.43665061  0.11809471     0.36900
C1270       C  0.02341373  0.43340480  0.09407550    -0.05300
C1271       C  0.02357829  0.40914408  0.08308581    -0.32200
C1272       C  0.03476799  0.38863920  0.09542484     0.36800
H1273       H  0.05406187  0.41856458  0.14920267     0.17200
O1274       O  0.03491134  0.45976511  0.12984431    -0.59700
H1275       H  0.01505613  0.40594113  0.06469537     0.17200
O1276       O  0.03405794  0.36524044  0.08424899    -0.59800
H1277       H  0.04822393  0.36518571  0.07184501     0.44200
H1278       H  0.05151018  0.46740756  0.12543451     0.44200
C1279       C  0.14067680  0.29435579  0.99315000    -0.04900
C1280       C  0.12016768  0.28068677  0.98332352    -0.32300
C1281       C  0.10349716  0.29177966  0.96592136     0.36900
C1282       C  0.10737804  0.31691114  0.95785213    -0.05300
C1283       C  0.12880888  0.33001448  0.96673502    -0.32200
C1284       C  0.14529668  0.31894969  0.98429510     0.36800
H1285       H  0.11609318  0.26195614  0.99047591     0.17200
O1286       O  0.08247028  0.27851223  0.95842953    -0.59700
H1287       H  0.13215045  0.34932027  0.96087036     0.17200
O1288       O  0.16484653  0.33294855  0.99407146    -0.59800
H1289       H  0.18011562  0.32742745  0.98454789     0.44200
H1290       H  0.06897358  0.28321477  0.97069140     0.44200
C1291       C  0.00676346  0.29795347  0.85355390    -0.04900
C1292       C  0.01605273  0.28317316  0.87347339    -0.32300
C1293       C  0.03293833  0.29335923  0.89124668     0.36900
C1294       C  0.04110935  0.31868455  0.88901170    -0.05300
C1295       C  0.03304924  0.33281913  0.86796554    -0.32200
C1296       C  0.01594625  0.32267030  0.85041334     0.36800
H1297       H  0.00873592  0.26427019  0.87631015     0.17200
O1298       O  0.03972314  0.27897847  0.91172620    -0.59700
H1299       H  0.03914994  0.35222197  0.86577151     0.17200
O1300       O  0.00689196  0.33766092  0.83130588    -0.59800
H1301       H  0.01611358  0.33211148  0.81586045     0.44200
H1302       H  0.02700358  0.28293429  0.92503791     0.44200
C1303       C  0.02304228  0.43114988  0.97612986    -0.04900
C1304       C  0.02692150  0.40870589  0.98978384    -0.32300
C1305       C  0.03830515  0.38761806  0.97850189     0.36900
C1306       C  0.04596826  0.38840869  0.95292745    -0.05300
C1307       C  0.04178334  0.41062138  0.93898928    -0.32200
C1308       C  0.03049964  0.43190953  0.95039895     0.36800
H1309       H  0.02112803  0.40742045  0.00946385     0.17200
O1310       O  0.04070923  0.36581525  0.99230042    -0.59700
H1311       H  0.04731027  0.41145747  0.91921286     0.17200
O1312       O  0.02638365  0.45307650  0.93607081    -0.59800
H1313       H  0.00900695  0.45106914  0.92920959     0.44200
H1314       H  0.05478735  0.36901786  0.00431237     0.44200
C1315       C  0.81758226  0.32170497  0.95979096    -0.04900
C1316       C  0.79779004  0.33654890  0.96968672    -0.32300
C1317       C  0.78012348  0.32632787  0.98669220     0.36900
C1318       C  0.78174998  0.30078278  0.99375396    -0.05300
C1319       C  0.80046917  0.28549507  0.98268574    -0.32200
C1320       C  0.81840177  0.29575868  0.96594926     0.36800
H1321       H  0.79666488  0.35643268  0.96505345     0.17200
O1322       O  0.76188222  0.34164028  0.99715096    -0.59700
H1323       H  0.80229554  0.26595937  0.98845998     0.17200
O1324       O  0.83765597  0.28063953  0.95719623    -0.59800
H1325       H  0.85155185  0.28262107  0.96967256     0.44200
H1326       H  0.77065417  0.35134856  0.01062186     0.44200
C1327       C  0.88148290  0.32073639  0.88850432    -0.04900
C1328       C  0.89063666  0.33529757  0.86815698    -0.32300
C1329       C  0.90705549  0.32480388  0.85004313     0.36900
C1330       C  0.91431598  0.29933912  0.85187136    -0.05300
C1331       C  0.90332966  0.28417392  0.87065649    -0.32200
C1332       C  0.88693943  0.29461313  0.88885396     0.36800
H1333       H  0.88623004  0.35524559  0.86713462     0.17200
O1334       O  0.91703476  0.33986570  0.83139351    -0.59700
H1335       H  0.90909331  0.26462450  0.87246451     0.17200
O1336       O  0.87874769  0.27969448  0.90844475    -0.59800
H1337       H  0.86471320  0.26947568  0.90129876     0.44200
H1338       H  0.93190129  0.34825598  0.83921342     0.44200
C1339       C  0.88474266  0.38857741  0.95479588    -0.04900
C1340       C  0.91066057  0.38691915  0.96063327    -0.32300
C1341       C  0.92351029  0.40724818  0.97186595     0.36900
C1342       C  0.91059694  0.43004359  0.97714926    -0.05300
C1343       C  0.88479125  0.43188184  0.97073615    -0.32200
C1344       C  0.87179263  0.41127124  0.96008962     0.36800
H1345       H  0.92092245  0.36959531  0.95680894     0.17200
O1346       O  0.94873717  0.40459086  0.97756244    -0.59700
H1347       H  0.87445384  0.44914748  0.97460296     0.17200
O1348       O  0.84656868  0.41369693  0.95430675    -0.59800
H1349       H  0.83746966  0.41167002  0.97065543     0.44200
H1350       H  0.95797114  0.41072792  0.96237601     0.44200
C1351       C  0.88413000  0.32450166  0.18359685    -0.04900
C1352       C  0.89332839  0.33836542  0.20436785    -0.32300
C1353       C  0.90905143  0.32699746  0.22238800     0.36900
C1354       C  0.91567392  0.30138044  0.21992448    -0.05300
C1355       C  0.90518238  0.28708401  0.20020882    -0.32200
C1356       C  0.88974145  0.29846289  0.18195749     0.36800
H1357       H  0.88921773  0.35834438  0.20600067     0.17200
O1358       O  0.91955782  0.34152428  0.24116052    -0.59700
H1359       H  0.91077025  0.26754387  0.19771461     0.17200
O1360       O  0.88197469  0.28440050  0.16153987    -0.59800
H1361       H  0.89586868  0.28583412  0.14891278     0.44200
H1362       H  0.90803767  0.33958570  0.25591528     0.44200
C1363       C  0.78014392  0.30195949  0.08581641    -0.04900
C1364       C  0.77772054  0.32761253  0.09210870    -0.32300
C1365       C  0.79569095  0.33956133  0.10761376     0.36900
C1366       C  0.81646288  0.32576271  0.11711432    -0.05300
C1367       C  0.81768316  0.29964646  0.11234499    -0.32200
C1368       C  0.79973932  0.28777159  0.09684145     0.36800
H1369       H  0.76281443  0.33878349  0.08356509     0.17200
O1370       O  0.79300923  0.36475665  0.11314083    -0.59700
H1371       H  0.83353912  0.28867185  0.11928655     0.17200
O1372       O  0.80306128  0.26289810  0.09039108    -0.59800
H1373       H  0.79474634  0.25321424  0.10416223     0.44200
H1374       H  0.79611295  0.37375979  0.09695655     0.44200
C1375       C  0.88427803  0.39221304  0.11763360    -0.04900
C1376       C  0.89188001  0.38976772  0.09224678    -0.32300
C1377       C  0.90482735  0.40929249  0.07989733     0.36900
C1378       C  0.90993026  0.43216222  0.09271898    -0.05300
C1379       C  0.90196208  0.43476555  0.11806269    -0.32200
C1380       C  0.88956237  0.41488656  0.13061347     0.36800
H1381       H  0.88802325  0.37244861  0.08199344     0.17200
O1382       O  0.91149046  0.40616121  0.05492632    -0.59700
H1383       H  0.90562640  0.45213928  0.12828848     0.17200
O1384       O  0.88185037  0.41811465  0.15526028    -0.59800
H1385       H  0.89719652  0.41508799  0.16564251     0.44200
H1386       H  0.92763304  0.39655799  0.05522582     0.44200
C1387       C  0.01184092  0.73848311  0.21858845    -0.04900
C1388       C  0.01868672  0.71321128  0.22254195    -0.32300
C1389       C  0.03517654  0.70085792  0.20570398     0.36900
C1390       C  0.04502614  0.71386499  0.18458157    -0.05300
C1391       C  0.03964690  0.73971040  0.18183473    -0.32200
C1392       C  0.02317799  0.75200594  0.19864924     0.36800
H1393       H  0.00994113  0.70260695  0.23777705     0.17200
O1394       O  0.04129750  0.67601729  0.20977652    -0.59700
H1395       H  0.04691522  0.75001272  0.16564855     0.17200
O1396       O  0.01627483  0.77650699  0.19393092    -0.59800
H1397       H  0.02772173  0.78692100  0.20454551     0.44200
H1398       H  0.02569797  0.66632054  0.20586895     0.44200
C1399       C  0.11336056  0.71343651  0.11902154    -0.04900
C1400       C  0.10947696  0.73876712  0.11221399    -0.32300
C1401       C  0.12593031  0.75088240  0.09533731     0.36900
C1402       C  0.14670644  0.73772687  0.08506076    -0.05300
C1403       C  0.15169908  0.71301720  0.09321228    -0.32200
C1404       C  0.13519323  0.70083609  0.11014325     0.36800
H1405       H  0.09265153  0.74867930  0.11861060     0.17200
O1406       O  0.12015662  0.77470884  0.08703507    -0.59700
H1407       H  0.16762142  0.70269758  0.08532531     0.17200
O1408       O  0.14026018  0.67655890  0.11763197    -0.59800
H1409       H  0.13686085  0.66584545  0.10258057     0.44200
H1410       H  0.12681348  0.78623019  0.10027238     0.44200
C1411       C  0.04659186  0.64712784  0.11733905    -0.04900
C1412       C  0.02310146  0.65138866  0.10570880    -0.32300
C1413       C  0.01085353  0.63211026  0.09221488     0.36900
C1414       C  0.02185056  0.60775432  0.09064106    -0.05300
C1415       C  0.04544638  0.60368064  0.10233559    -0.32200
C1416       C  0.05795633  0.62321377  0.11518634     0.36800
H1417       H  0.01436292  0.66987734  0.10684721     0.17200
O1418       O  0.98817905  0.63739842  0.08069641    -0.59700
H1419       H  0.05446569  0.58533475  0.10127485     0.17200
O1420       O  0.08101647  0.61857516  0.12617834    -0.59800
H1421       H  0.09359986  0.62045868  0.11230286     0.44200
H1422       H  0.97500856  0.63343453  0.09353781     0.44200
C1423       C  0.88671354  0.71576566  0.18043339    -0.04900
C1424       C  0.89520305  0.70271420  0.20197589    -0.32300
C1425       C  0.91155201  0.71432185  0.21938903     0.36900
C1426       C  0.91974220  0.73930031  0.21542490    -0.05300
C1427       C  0.91032047  0.75279470  0.19468833    -0.32200
C1428       C  0.89406705  0.74123622  0.17719507     0.36800
H1429       H  0.88976860  0.68320936  0.20487828     0.17200
O1430       O  0.92077584  0.70059006  0.23934657    -0.59700
H1431       H  0.91701654  0.77179342  0.19107569     0.20500
O1432       O  0.88692967  0.75450542  0.15608350    -0.59800
H1433       H  0.90021624  0.75093681  0.14322437     0.44200
H1434       H  0.91024189  0.70565442  0.25410732     0.44200
C1435       C  0.81801209  0.71681915  0.11518770    -0.04900
C1436       C  0.82180038  0.74216457  0.10824227    -0.32300
C1437       C  0.80465966  0.75449153  0.09224740     0.36900
C1438       C  0.78341714  0.74149261  0.08285346    -0.05300
C1439       C  0.77858389  0.71683407  0.09122051    -0.32200
C1440       C  0.79562649  0.70452912  0.10742627     0.36800
H1441       H  0.83888768  0.75196708  0.11397027     0.17200
O1442       O  0.81007398  0.77842007  0.08396513    -0.59700
H1443       H  0.76227831  0.70664607  0.08407345     0.17200
O1444       O  0.79040502  0.68046641  0.11548508    -0.59800
H1445       H  0.79277489  0.66951765  0.10039180     0.44200
H1446       H  0.80132731  0.78982141  0.09608819     0.44200
C1447       C  0.88130675  0.64643502  0.11596194    -0.04900
C1448       C  0.89391158  0.65039118  0.09291954    -0.32300
C1449       C  0.90657305  0.63063122  0.08048784     0.36900
C1450       C  0.90626211  0.60587022  0.09061004    -0.05300
C1451       C  0.89294005  0.60186690  0.11349526    -0.32200
C1452       C  0.88086364  0.62195511  0.12627368     0.36800
H1453       H  0.89438645  0.66913078  0.08472546     0.17200
O1454       O  0.91887490  0.63583012  0.05818847    -0.59700
H1455       H  0.89224907  0.58320583  0.12181753     0.17200
O1456       O  0.86823560  0.61738405  0.14855038    -0.59800
H1457       H  0.88128673  0.61884440  0.16196740     0.44200
H1458       H  0.93546201  0.64305419  0.06322428     0.44200
C1459       C  0.88642612  0.71497670  0.89355423    -0.04900
C1460       C  0.89382248  0.74024029  0.89705403    -0.32300
C1461       C  0.91047249  0.75190558  0.88003367     0.36900
C1462       C  0.91989561  0.73838350  0.85907641    -0.05300
C1463       C  0.91158285  0.71361260  0.85478988    -0.32200
C1464       C  0.89494192  0.70186176  0.87185200     0.36800
H1465       H  0.88779017  0.75053390  0.91378707     0.17200
O1466       O  0.91915967  0.77576157  0.88521319    -0.59700
H1467       H  0.91896306  0.70298154  0.83882533     0.17200
O1468       O  0.88712191  0.67757020  0.86725613    -0.59800
H1469       H  0.90225933  0.66683235  0.87008131     0.44200
H1470       H  0.90808590  0.78719736  0.87532485     0.44200
C1471       C  0.81745574  0.71686135  0.95889742    -0.04900
C1472       C  0.82140639  0.74215307  0.96597590    -0.32300
C1473       C  0.80424993  0.75460469  0.98194555     0.36900
C1474       C  0.78270233  0.74184756  0.99101789    -0.05300
C1475       C  0.77771756  0.71724216  0.98253053    -0.32200
C1476       C  0.79492775  0.70470002  0.96656343     0.36800
H1477       H  0.83869050  0.75177538  0.96048084     0.17200
O1478       O  0.81005138  0.77829199  0.99072178    -0.59700
H1479       H  0.76128066  0.70718589  0.98961788     0.17200
O1480       O  0.78980750  0.68048743  0.95880779    -0.59800
H1481       H  0.79156107  0.66986604  0.97416687     0.44200
H1482       H  0.80116998  0.79004021  0.97914352     0.44200
C1483       C  0.87984381  0.64561391  0.95688904    -0.04900
C1484       C  0.88385997  0.62343568  0.94276834    -0.32300
C1485       C  0.89626044  0.60260349  0.95353075     0.36900
C1486       C  0.90500270  0.60384997  0.97874612    -0.05300
C1487       C  0.90078042  0.62604378  0.99277104    -0.32200
C1488       C  0.88841087  0.64675345  0.98209436     0.36800
H1489       H  0.87763135  0.62241677  0.92323955     0.17200
O1490       O  0.90040280  0.58150388  0.93898999    -0.59700
H1491       H  0.90735050  0.62746313  0.01210261     0.17200
O1492       O  0.88552327  0.66833698  0.99623006    -0.59800
H1493       H  0.90035456  0.67900673  0.99186757     0.44200
H1494       H  0.91763107  0.58372885  0.93174569     0.44200
C1495       C  0.11225786  0.71632666  0.95793380    -0.04900
C1496       C  0.13289143  0.70233388  0.96726019    -0.32300
C1497       C  0.14994946  0.71301845  0.98456506     0.36900
C1498       C  0.14666489  0.73812060  0.99275723    -0.05300
C1499       C  0.12713809  0.75263974  0.98225701    -0.32200
C1500       C  0.10990921  0.74195153  0.96513335     0.36800
H1501       H  0.13518606  0.68271243  0.96188676     0.17200
O1502       O  0.16876336  0.69827696  0.99463847    -0.59700
H1503       H  0.12414055  0.77182574  0.98877718     0.17200
O1504       O  0.08981188  0.75624793  0.95707494    -0.59800
H1505       H  0.07596771  0.75281366  0.96935421     0.44200
H1506       H  0.18463126  0.70406593  0.98635911     0.44200
C1507       C  0.04685742  0.71737703  0.88871473    -0.04900
C1508       C  0.03905679  0.74243441  0.89280686    -0.32300
C1509       C  0.02157036  0.75393449  0.87655773     0.36900
C1510       C  0.01197138  0.74055903  0.85561841    -0.05300
C1511       C  0.02129182  0.71631887  0.85031443    -0.32200
C1512       C  0.03877938  0.70478675  0.86656319     0.36800
H1513       H  0.04498806  0.75245006  0.90970817     0.17200
O1514       O  0.01247669  0.77751925  0.88236370    -0.59700
H1515       H  0.01382706  0.70575771  0.83438546     0.17200
O1516       O  0.04678957  0.68069220  0.86137806    -0.59800
H1517       H  0.06291292  0.68275357  0.85189025     0.44200
H1518       H  0.99754653  0.77457119  0.89344785     0.44200
C1519       C  0.04782783  0.64715465  0.95174608    -0.04900
C1520       C  0.02234720  0.64914356  0.95919387    -0.32300
C1521       C  0.00991882  0.62904246  0.97120390     0.36900
C1522       C  0.02276338  0.60601888  0.97554141    -0.05300
C1523       C  0.04810605  0.60380291  0.96736076    -0.32200
C1524       C  0.06072001  0.62424945  0.95591933     0.36800
H1525       H  0.01211685  0.66660795  0.95610306     0.17200
O1526       O  0.98492265  0.63189596  0.97791812    -0.59700
H1527       H  0.05838804  0.58636387  0.97036420     0.17200
O1528       O  0.08544031  0.62146829  0.94826813    -0.59800
H1529       H  0.09569330  0.62389169  0.96381314     0.44200
H1530       H  0.98514013  0.64164094  0.99399239     0.44200
loop_ 
_geom_bond_atom_site_label_1 
_geom_bond_atom_site_label_2 
_geom_bond_distance 
_geom_bond_site_symmetry_2 
_ccdc_geom_bond_type 
C1            C2   1.405       .  A
C1            C6   1.404       .  A
C1         C1519   1.489       .  S
C2            C3   1.410       .  A
C2            H7   1.084       .  S
C3            C4   1.408       .  A
C3         C1495   1.492       .  S
C4            C5   1.406       .  A
C4            H8   1.083       .  S
C5            C6   1.407       .  A
C5         C1507   1.488       .  S
C6            H9   1.084       .  S
C10          C11   1.401       .  A
C10          C15   1.404       .  A
C10        C1483   1.482       .  S
C11          C12   1.405       .  A
C11          H16   1.083       .  S
C12          C13   1.405       .  A
C12        C1459   1.485       .  S
C13          C14   1.405       .  A
C13          H17   1.084       .  S
C14          C15   1.407       .  A
C14        C1471   1.486       .  S
C15          H18   1.083       .  S
C19          C20   1.405       .  A
C19          C24   1.406       .  A
C19        C1447   1.488       .  S
C20          C21   1.408       .  A
C20          H25   1.083       .  S
C21          C22   1.404       .  A
C21        C1435   1.488       .  S
C22          C23   1.406       .  A
C22          H26   1.084       .  S
C23          C24   1.411       .  A
C23        C1423   1.491       .  S
C24          H27   1.084       .  S
C28          C29   1.404       .  A
C28          C33   1.402       .  A
C28        C1411   1.482       .  S
C29          C30   1.408       .  A
C29          H34   1.083       .  S
C30          C31   1.404       .  A
C30        C1390   1.485       .  S
C31          C32   1.404       .  A
C31          H35   1.084       .  S
C32          C33   1.406       .  A
C32        C1399   1.483       .  S
C33          H36   1.083       .  S
C37          C38   1.406       .  A
C37          C42   1.404       .  A
C37        C1375   1.487       .  S
C38          C39   1.408       .  A
C38          H43   1.083       .  S
C39          C40   1.405       .  A
C39        C1366   1.490       .  S
C40          C41   1.405       .  A
C40          H44   1.083       .  S
C41          C42   1.407       .  A
C41        C1351   1.487       .  S
C42          H45   1.084       .  S
C46          C47   1.404       .  A
C46          C51   1.404       .  A
C46        C1339   1.491       .  S
C47          C48   1.410       .  A
C47          H52   1.084       .  S
C48          C49   1.408       .  A
C48        C1327   1.493       .  S
C49          C50   1.407       .  A
C49          H53   1.083       .  S
C50          C51   1.409       .  A
C50        C1315   1.490       .  S
C51          H54   1.084       .  S
C55          C56   1.404       .  A
C55          C60   1.403       .  A
C55        C1306   1.489       .  S
C56          C57   1.406       .  A
C56          H61   1.084       .  S
C57          C58   1.408       .  A
C57        C1282   1.492       .  S
C58          C59   1.409       .  A
C58          H62   1.083       .  S
C59          C60   1.410       .  A
C59        C1294   1.492       .  S
C60          H63   1.084       .  S
C64          C65   1.402       .  A
C64          C69   1.403       .  A
C64        C1267   1.483       .  S
C65          C66   1.407       .  A
C65          H70   1.083       .  S
C66          C67   1.405       .  A
C66        C1255   1.488       .  S
C67          C68   1.404       .  A
C67          H71   1.084       .  S
C68          C69   1.409       .  A
C68        C1243   1.487       .  S
C69          H72   1.083       .  S
O73         Zr85   2.463       .  S
O73          C75   1.292       .  A
O74        Zr111   2.414       .  S
O74          C75   1.285   1_655  A
C75        C1414   1.491       .  S
O76         Zr88   2.472       .  S
O76          C78   1.293       .  A
O77        Zr112   2.413       .  S
O77          C78   1.285   1_654  A
C78        C1303   1.491       .  S
O79         Zr88   2.466       .  S
O79          C81   1.293       .  A
O80        Zr111   2.424       .  S
O80          C81   1.287   1_654  A
C81        C1522   1.493       .  S
O82         Zr85   2.463       .  S
O82          C84   1.292       .  A
O83        Zr112   2.417       .  S
O83          C84   1.286   1_655  A
C84        C1270   1.494       .  S
Zr85         O86   2.435       .  S
Zr85         O87   2.436       .  S
Zr85         O91   2.376       .  S
Zr85         O92   2.379       .  S
Zr85        O115   2.377   1_455  S
Zr85        O117   2.376   1_455  S
O86         H129   0.990       .  S
O87         H128   0.990   1_455  S
O87         H132   0.990       .  S
Zr88         O89   2.436       .  S
Zr88         O90   2.434       .  S
Zr88         O92   2.378   1_556  S
Zr88         O91   2.381   1_556  S
Zr88        O116   2.379   1_455  S
Zr88        O118   2.377   1_455  S
O89         H130   0.990   1_556  S
O89         H133   0.990       .  S
O90         H123   0.990   1_455  S
O91        Zr111   2.382   1_455  S
O92        Zr112   2.384   1_455  S
O92         H119   0.966       .  S
O93        Zr105   2.456       .  S
O93          C95   1.291       .  A
O94        Zr112   2.420       .  S
O94          C95   1.286       .  A
C95        C1378   1.487       .  S
O96        Zr108   2.458       .  S
O96          C98   1.291       .  A
O97        Zr111   2.410       .  S
O97          C98   1.285   1_554  A
C98        C1486   1.483       .  S
O99        Zr108   2.462       .  S
O99         C101   1.292       .  A
O100       Zr112   2.427       .  S
O100        C101   1.287   1_554  A
C101       C1342   1.491       .  S
O102       Zr105   2.465       .  S
O102        C104   1.293       .  A
O103       Zr111   2.432       .  S
O103        C104   1.288       .  A
C104       C1450   1.503       .  S
Zr105       O106   2.435       .  S
Zr105       O107   2.433       .  S
Zr105       O113   2.377       .  S
Zr105       O114   2.375       .  S
Zr105       O117   2.376       .  S
Zr105       O115   2.377       .  S
O106        H126   0.990       .  S
O106        H131   0.990       .  S
O107        H127   0.990       .  S
Zr108       O109   2.433       .  S
Zr108       O110   2.434       .  S
Zr108       O114   2.379   1_556  S
Zr108       O113   2.376   1_556  S
Zr108       O118   2.374       .  S
Zr108       O116   2.374       .  S
O109        H125   0.990   1_556  S
O110        H124   0.990       .  S
O110        H134   0.990       .  S
Zr111       O114   2.376       .  S
Zr111       O116   2.385   1_554  S
Zr111       O117   2.382       .  S
Zr112       O113   2.379       .  S
Zr112       O115   2.379       .  S
Zr112       O118   2.377   1_554  S
O113        H121   0.966       .  S
O116        H120   0.965       .  S
O117        H122   0.965       .  S
C135        C136   1.403       .  A
C135        C140   1.404       .  A
C135       C1231   1.485       .  S
C136        C137   1.409       .  A
C136        H141   1.083       .  S
C137        C138   1.406       .  A
C137       C1222   1.488       .  S
C138        C139   1.405       .  A
C138        H142   1.084       .  S
C139        C140   1.407       .  A
C139       C1207   1.488       .  S
C140        H143   1.084       .  S
C144        C145   1.402       .  A
C144        C149   1.403       .  A
C144       C1195   1.485       .  S
C145        C146   1.405       .  A
C145        H150   1.084       .  S
C146        C147   1.406       .  A
C146       C1183   1.489       .  S
C147        C148   1.407       .  A
C147        H151   1.083       .  S
C148        C149   1.408       .  A
C148       C1171   1.489       .  S
C149        H152   1.083       .  S
C153        C154   1.402       .  A
C153        C158   1.401       .  A
C153       C1159   1.484       .  S
C154        C155   1.407       .  A
C154        H159   1.084       .  S
C155        C156   1.406       .  A
C155       C1135   1.489       .  S
C156        C157   1.408       .  A
C156        H160   1.083       .  S
C157        C158   1.408       .  A
C157       C1147   1.489       .  S
C158        H161   1.083       .  S
C162        C163   1.400       .  A
C162        C167   1.402       .  A
C162       C1123   1.481       .  S
C163        C164   1.406       .  A
C163        H168   1.084       .  S
C164        C165   1.406       .  A
C164       C1099   1.488       .  S
C165        C166   1.408       .  A
C165        H169   1.083       .  S
C166        C167   1.410       .  A
C166       C1114   1.492       .  S
C167        H170   1.083       .  S
C171        C172   1.402       .  A
C171        C176   1.404       .  A
C171       C1087   1.485       .  S
C172        C173   1.407       .  A
C172        H177   1.083       .  S
C173        C174   1.405       .  A
C173       C1075   1.486       .  S
C174        C175   1.405       .  A
C174        H178   1.083       .  S
C175        C176   1.409       .  A
C175       C1063   1.491       .  S
C176        H179   1.084       .  S
C180        C181   1.405       .  A
C180        C185   1.406       .  A
C180       C1051   1.492       .  S
C181        C182   1.409       .  A
C181        H186   1.083       .  S
C182        C183   1.407       .  A
C182       C1039   1.493       .  S
C183        C184   1.406       .  A
C183        H187   1.083       .  S
C184        C185   1.410       .  A
C184       C1027   1.490       .  S
C185        H188   1.083       .  S
C189        C190   1.404       .  A
C189        C194   1.402       .  A
C189       C1015   1.486       .  S
C190        C191   1.408       .  A
C190        H195   1.083       .  S
C191        C192   1.408       .  A
C191       C1003   1.493       .  S
C192        C193   1.410       .  A
C192        H196   1.083       .  S
C193        C194   1.409       .  A
C193        C991   1.494       .  S
C194        H197   1.084       .  S
C198        C199   1.402       .  A
C198        C203   1.403       .  A
C198        C979   1.485       .  S
C199        C200   1.407       .  A
C199        H204   1.083       .  S
C200        C201   1.407       .  A
C200        C958   1.490       .  S
C201        C202   1.406       .  A
C201        H205   1.082       .  S
C202        C203   1.408       .  A
C202        C967   1.490       .  S
C203        H206   1.084       .  S
O207       Zr219   2.462       .  S
O207        C209   1.292       .  A
O208       Zr245   2.419       .  S
O208        C209   1.285       .  A
C209       C1126   1.495       .  S
O210       Zr222   2.465       .  S
O210        C212   1.292       .  A
O211       Zr246   2.415   1_565  S
O211        C212   1.285       .  A
C212       C1018   1.490       .  S
O213       Zr222   2.462       .  S
O213        C215   1.292       .  A
O214       Zr245   2.423   1_565  S
O214        C215   1.287       .  A
C215       C1234   1.494       .  S
O216       Zr219   2.451       .  S
O216        C218   1.290       .  A
O217       Zr246   2.419       .  S
O217        C218   1.286       .  A
C218        C982   1.484       .  S
Zr219       O220   2.435       .  S
Zr219       O221   2.437       .  S
Zr219       O225   2.375       .  S
Zr219       O226   2.377       .  S
Zr219       O249   2.380       .  S
Zr219       O251   2.372       .  S
O220        H263   0.990       .  S
O221        H262   0.990       .  S
O221        H266   0.990       .  S
Zr222       O223   2.436       .  S
Zr222       O224   2.433       .  S
Zr222       O226   2.375   1_565  S
Zr222       O225   2.378   1_565  S
Zr222       O250   2.377       .  S
Zr222       O252   2.381       .  S
O223        H264   0.990       .  S
O223        H267   0.990       .  S
O224        H257   0.990       .  S
O225       Zr245   2.375       .  S
O226       Zr246   2.382       .  S
O226        H253   0.966       .  S
O227       Zr239   2.457   1_556  S
O227        C229   1.291       .  A
O228       Zr246   2.416       .  S
O228        C229   1.285   1_554  A
C229       C1090   1.485       .  S
O230       Zr242   2.456   1_556  S
O230        C232   1.291       .  A
O231       Zr245   2.411   1_565  S
O231        C232   1.285   1_554  A
C232       C1198   1.481       .  S
O233       Zr242   2.469   1_556  S
O233        C235   1.293       .  A
O234       Zr246   2.424   1_565  S
O234        C235   1.287   1_554  A
C235       C1054   1.494       .  S
O236       Zr239   2.459   1_556  S
O236        C238   1.291       .  A
O237       Zr245   2.415       .  S
O237        C238   1.286   1_554  A
C238       C1162   1.487       .  S
Zr239       O240   2.436   1_554  S
Zr239       O241   2.435       .  S
Zr239       O247   2.377       .  S
Zr239       O248   2.374       .  S
Zr239       O251   2.376       .  S
Zr239       O249   2.377       .  S
O240        H260   0.990       .  S
O240        H265   0.990       .  S
O241        H261   0.990       .  S
Zr242       O243   2.434   1_554  S
Zr242       O244   2.435   1_554  S
Zr242       O248   2.377   1_565  S
Zr242       O247   2.370   1_565  S
Zr242       O252   2.378       .  S
Zr242       O250   2.382       .  S
O243        H259   0.990       .  S
O244        H258   0.990       .  S
O244        H268   0.990   1_556  S
Zr245       O248   2.379       .  S
Zr245       O250   2.384   1_545  S
Zr245       O251   2.381       .  S
Zr246       O247   2.381       .  S
Zr246       O249   2.384       .  S
Zr246       O252   2.378   1_545  S
O247        H255   0.966   1_554  S
O250        H254   0.966       .  S
O251        H256   0.965       .  S
C269        C270   1.403       .  A
C269        C274   1.401       .  A
C269        C943   1.484       .  S
C270        C271   1.410       .  A
C270        H275   1.084       .  S
C271        C272   1.407       .  A
C271        C931   1.492       .  S
C272        C273   1.405       .  A
C272        H276   1.082       .  S
C273        C274   1.405       .  A
C273        C922   1.487       .  S
C274        H277   1.084       .  S
C278        C279   1.401       .  A
C278        C283   1.403       .  A
C278        C907   1.484       .  S
C279        C280   1.408       .  A
C279        H284   1.083       .  S
C280        C281   1.408       .  A
C280        C895   1.489       .  S
C281        C282   1.407       .  A
C281        H285   1.083       .  S
C282        C283   1.410       .  A
C282        C883   1.490       .  S
C283        H286   1.084       .  S
C287        C288   1.402       .  A
C287        C292   1.403       .  A
C287        C871   1.486       .  S
C288        C289   1.406       .  A
C288        H293   1.083       .  S
C289        C290   1.406       .  A
C289        C859   1.487       .  S
C290        C291   1.406       .  A
C290        H294   1.083       .  S
C291        C292   1.406       .  A
C291        C847   1.488       .  S
C292        H295   1.084       .  S
C296        C297   1.402       .  A
C296        C301   1.400       .  A
C296        C835   1.478       .  S
C297        C298   1.408       .  A
C297        H302   1.084       .  S
C298        C299   1.404       .  A
C298        C823   1.485       .  S
C299        C300   1.404       .  A
C299        H303   1.083       .  S
C300        C301   1.406       .  A
C300        C811   1.485       .  S
C301        H304   1.084       .  S
C305        C306   1.402       .  A
C305        C310   1.402       .  A
C305        C799   1.483       .  S
C306        C307   1.409       .  A
C306        H311   1.083       .  S
C307        C308   1.407       .  A
C307        C790   1.491       .  S
C308        C309   1.407       .  A
C308        H312   1.083       .  S
C309        C310   1.408       .  A
C309        C778   1.492       .  S
C310        H313   1.083       .  S
C314        C315   1.402       .  A
C314        C319   1.402       .  A
C314        C763   1.484       .  S
C315        C316   1.408       .  A
C315        H320   1.083       .  S
C316        C317   1.406       .  A
C316        C751   1.488       .  S
C317        C318   1.407       .  A
C317        H321   1.084       .  S
C318        C319   1.407       .  A
C318        C739   1.486       .  S
C319        H322   1.083       .  S
C323        C324   1.401       .  A
C323        C328   1.401       .  A
C323        C730   1.479       .  S
C324        C325   1.407       .  A
C324        H329   1.084       .  S
C325        C326   1.407       .  A
C325        C706   1.489       .  S
C326        C327   1.407       .  A
C326        H330   1.084       .  S
C327        C328   1.407       .  A
C327        C715   1.486       .  S
C328        H331   1.084       .  S
C332        C333   1.401       .  A
C332        C337   1.400       .  A
C332        C694   1.480       .  S
C333        C334   1.409       .  A
C333        H338   1.083       .  S
C334        C335   1.406       .  A
C334        C670   1.487       .  S
C335        C336   1.403       .  A
C335        H339   1.084       .  S
C336        C337   1.406       .  A
C336        C682   1.485       .  S
C337        H340   1.084       .  S
O341       Zr353   2.459       .  S
O341        C343   1.291       .  A
O342       Zr379   2.414   1_565  S
O342        C343   1.285   1_655  A
C343        C946   1.487       .  S
O344       Zr356   2.472       .  S
O344        C346   1.294       .  A
O345       Zr380   2.402       .  S
O345        C346   1.282   1_655  A
C346        C691   1.492       .  S
O347       Zr356   2.467       .  S
O347        C349   1.294       .  A
O348       Zr379   2.418       .  S
O348        C349   1.285   1_655  A
C349        C838   1.499       .  S
O350       Zr353   2.454       .  S
O350        C352   1.290       .  A
O351       Zr380   2.423   1_565  S
O351        C352   1.287   1_655  A
C352        C727   1.496       .  S
Zr353       O354   2.434       .  S
Zr353       O355   2.435       .  S
Zr353       O359   2.378   1_565  S
Zr353       O360   2.377   1_565  S
Zr353       O383   2.376   1_455  S
Zr353       O385   2.376   1_455  S
O354        H397   0.990       .  S
O355        H396   0.990   1_455  S
O355        H400   0.990       .  S
Zr356       O357   2.435       .  S
Zr356       O358   2.434       .  S
Zr356       O360   2.378       .  S
Zr356       O359   2.378       .  S
Zr356       O384   2.376   1_455  S
Zr356       O386   2.378   1_455  S
O357        H398   0.990       .  S
O357        H401   0.990       .  S
O358        H391   0.990   1_455  S
O359       Zr379   2.377   1_455  S
O360       Zr380   2.381   1_455  S
O360        H387   0.967       .  S
O361       Zr373   2.471       .  S
O361        C363   1.293       .  A
O362       Zr380   2.405   1_565  S
O362        C363   1.284       .  A
C363        C766   1.486       .  S
O364       Zr376   2.443       .  S
O364        C366   1.288       .  A
O365       Zr379   2.420       .  S
O365        C366   1.286       .  A
C366        C874   1.477       .  S
O367       Zr376   2.447       .  S
O367        C369   1.289       .  A
O368       Zr380   2.428       .  S
O368        C369   1.287       .  A
C369        C802   1.488       .  S
O370       Zr373   2.473       .  S
O370        C372   1.294       .  A
O371       Zr379   2.416   1_565  S
O371        C372   1.286       .  A
C372        C910   1.498       .  S
Zr373       O374   2.436       .  S
Zr373       O375   2.433       .  S
Zr373       O381   2.374   1_565  S
Zr373       O382   2.374   1_565  S
Zr373       O385   2.381       .  S
Zr373       O383   2.379       .  S
O374        H394   0.990       .  S
O374        H399   0.990       .  S
O375        H395   0.990       .  S
Zr376       O377   2.435       .  S
Zr376       O378   2.435       .  S
Zr376       O382   2.374       .  S
Zr376       O381   2.371       .  S
Zr376       O386   2.376       .  S
Zr376       O384   2.376       .  S
O377        H393   0.990       .  S
O378        H392   0.990       .  S
O378        H402   0.990       .  S
Zr379       O382   2.379       .  S
Zr379       O384   2.382       .  S
Zr379       O385   2.385   1_545  S
Zr380       O381   2.380       .  S
Zr380       O383   2.379   1_545  S
Zr380       O386   2.376       .  S
O381        H389   0.966       .  S
O384        H388   0.965       .  S
O385        H390   0.965       .  S
C403        C404   1.394       .  A
C403        C408   1.414       .  A
C403       C1354   1.479       .  S
C404        C405   1.394       .  A
C404        H423   1.086       .  S
C405        C406   1.414       .  A
C405       C1246   1.481   1_655  S
C406        C407   1.423       .  A
C406        C413   1.405   1_655  A
C407        C408   1.422       .  A
C407        C412   1.420       .  A
C408        C409   1.406       .  A
C409        C410   1.397       .  A
C409        H419   1.083       .  S
C410        C411   1.405       .  A
C410        H420   1.083       .  S
C411        C412   1.424       .  A
C411        C418   1.416       .  A
C412        C415   1.422       .  A
C413        C414   1.395       .  A
C413        H421   1.083       .  S
C414        C415   1.405   1_455  A
C414        H422   1.083       .  S
C415        C416   1.413       .  A
C416        C417   1.393       .  A
C416        C667   1.479   1_655  S
C417        C418   1.394       .  A
C417        H424   1.086       .  S
C418        C775   1.483       .  S
C425        C426   1.397   1_565  A
C425        C430   1.416       .  A
C425        C994   1.486       .  S
C426        C427   1.397       .  A
C426        H445   1.086       .  S
C427        C428   1.413       .  A
C427        C955   1.482       .  S
C428        C429   1.421       .  A
C428        C435   1.406       .  A
C429        C430   1.422   1_545  A
C429        C434   1.420       .  A
C430        C431   1.406       .  A
C431        C432   1.396       .  A
C431        H441   1.083       .  S
C432        C433   1.405       .  A
C432        H442   1.083       .  S
C433        C434   1.421   1_565  A
C433        C440   1.414       .  A
C434        C437   1.421       .  A
C435        C436   1.394       .  A
C435        H443   1.082       .  S
C436        C437   1.404       .  A
C436        H444   1.083       .  S
C437        C438   1.412       .  A
C438        C439   1.395       .  A
C438        C679   1.478       .  S
C439        C440   1.395   1_545  A
C439        H446   1.086       .  S
C440        C703   1.480       .  S
C447        C448   1.395       .  A
C447        C452   1.415       .  A
C447       C1279   1.484   1_554  S
C448        C449   1.397       .  A
C448        H467   1.086       .  S
C449        C450   1.415       .  A
C449       C1258   1.480       .  S
C450        C451   1.421       .  A
C450        C457   1.406       .  A
C451        C452   1.423       .  A
C451        C456   1.421       .  A
C452        C453   1.405   1_554  A
C453        C454   1.396       .  A
C453        H463   1.083       .  S
C454        C455   1.406   1_556  A
C454        H464   1.082       .  S
C455        C456   1.422       .  A
C455        C462   1.415       .  A
C456        C459   1.423       .  A
C457        C458   1.396       .  A
C457        H465   1.083       .  S
C458        C459   1.405       .  A
C458        H466   1.083       .  S
C459        C460   1.416       .  A
C460        C461   1.395       .  A
C460        C970   1.485       .  S
C461        C462   1.395       .  A
C461        H468   1.086       .  S
C462       C1066   1.483   1_554  S
C469        C470   1.396       .  A
C469        C474   1.415       .  A
C469       C1111   1.482       .  S
C470        C471   1.395       .  A
C470        H489   1.086       .  S
C471        C472   1.414       .  A
C471       C1210   1.481   1_545  S
C472        C473   1.422       .  A
C472        C479   1.405   1_545  A
C473        C474   1.422       .  A
C473        C478   1.420       .  A
C474        C475   1.405       .  A
C475        C476   1.396       .  A
C475        H485   1.083       .  S
C476        C477   1.406       .  A
C476        H486   1.083       .  S
C477        C478   1.422       .  A
C477        C484   1.415       .  A
C478        C481   1.422       .  A
C479        C480   1.395       .  A
C479        H487   1.083       .  S
C480        C481   1.405   1_565  A
C480        H488   1.083       .  S
C481        C482   1.414       .  A
C482        C483   1.395       .  A
C482        C742   1.481   1_545  S
C483        C484   1.396       .  A
C483        H490   1.086       .  S
C484        C787   1.482       .  S
C491        C492   1.395       .  A
C491        C496   1.414       .  A
C491       C1387   1.480   1_655  S
C492        C493   1.395       .  A
C492        H511   1.086       .  S
C493        C494   1.416       .  A
C493       C1426   1.483       .  S
C494        C495   1.423       .  A
C494        C501   1.405       .  A
C495        C496   1.422       .  A
C495        C500   1.421       .  A
C496        C497   1.406   1_655  A
C497        C498   1.396       .  A
C497        H507   1.083       .  S
C498        C499   1.405   1_455  A
C498        H508   1.083       .  S
C499        C500   1.423       .  A
C499        C506   1.414       .  A
C500        C503   1.422       .  A
C501        C502   1.396       .  A
C501        H509   1.083       .  S
C502        C503   1.406       .  A
C502        H510   1.083       .  S
C503        C504   1.415       .  A
C504        C505   1.397       .  A
C504        C754   1.482       .  S
C505        C506   1.395       .  A
C505        H512   1.086       .  S
C506        C718   1.481   1_655  S
C513        C514   1.395   1_565  A
C513        C518   1.416       .  A
C513       C1030   1.484       .  S
C514        C515   1.396       .  A
C514        H533   1.086       .  S
C515        C516   1.412       .  A
C515       C1078   1.479       .  S
C516        C517   1.421       .  A
C516        C523   1.406       .  A
C517        C518   1.423   1_545  A
C517        C522   1.420       .  A
C518        C519   1.405       .  A
C519        C520   1.397       .  A
C519        H529   1.083       .  S
C520        C521   1.406       .  A
C520        H530   1.083       .  S
C521        C522   1.421   1_565  A
C521        C528   1.414   1_565  A
C522        C525   1.422       .  A
C523        C524   1.393       .  A
C523        H531   1.083       .  S
C524        C525   1.404       .  A
C524        H532   1.083       .  S
C525        C526   1.412       .  A
C526        C527   1.395       .  A
C526        C826   1.479       .  S
C527        C528   1.396       .  A
C527        H534   1.086       .  S
C528        C919   1.479   1_545  S
C535        C536   1.396       .  A
C535        C540   1.414       .  A
C535       C1291   1.483   1_655  S
C536        C537   1.398       .  A
C536        H555   1.086       .  S
C537        C538   1.414       .  A
C537       C1330   1.483       .  S
C538        C539   1.422       .  A
C538        C545   1.405       .  A
C539        C540   1.422       .  A
C539        C544   1.420       .  A
C540        C541   1.405   1_655  A
C541        C542   1.395       .  A
C541        H551   1.083       .  S
C542        C543   1.406   1_455  A
C542        H552   1.083       .  S
C543        C544   1.421       .  A
C543        C550   1.414       .  A
C544        C547   1.422       .  A
C545        C546   1.395       .  A
C545        H553   1.083       .  S
C546        C547   1.405       .  A
C546        H554   1.083       .  S
C547        C548   1.414       .  A
C548        C549   1.396       .  A
C548        C850   1.482       .  S
C549        C550   1.396       .  A
C549        H556   1.086       .  S
C550        C814   1.480   1_655  S
C557        C558   1.397       .  A
C557        C562   1.415       .  A
C557       C1402   1.481       .  S
C558        C559   1.397       .  A
C558        H577   1.086       .  S
C559        C560   1.416       .  A
C559       C1498   1.485   1_554  S
C560        C561   1.423       .  A
C560        C567   1.405   1_554  A
C561        C562   1.421       .  A
C561        C566   1.422       .  A
C562        C563   1.406       .  A
C563        C564   1.396       .  A
C563        H573   1.083       .  S
C564        C565   1.405       .  A
C564        H574   1.083       .  S
C565        C566   1.424       .  A
C565        C572   1.416       .  A
C566        C569   1.422       .  A
C567        C568   1.396       .  A
C567        H575   1.083       .  S
C568        C569   1.406   1_556  A
C568        H576   1.083       .  S
C569        C570   1.415       .  A
C570        C571   1.397       .  A
C570       C1042   1.483   1_554  S
C571        C572   1.397       .  A
C571        H578   1.086       .  S
C572       C1006   1.486       .  S
C579        C580   1.395       .  A
C579        C584   1.415       .  A
C579       C1318   1.484   1_554  S
C580        C581   1.396       .  A
C580        H599   1.086       .  S
C581        C582   1.416       .  A
C581       C1363   1.484       .  S
C582        C583   1.423       .  A
C582        C589   1.405       .  A
C583        C584   1.422       .  A
C583        C588   1.421       .  A
C584        C585   1.405   1_554  A
C585        C586   1.395       .  A
C585        H595   1.083       .  S
C586        C587   1.405   1_556  A
C586        H596   1.083       .  S
C587        C588   1.423       .  A
C587        C594   1.415       .  A
C588        C591   1.422       .  A
C589        C590   1.397       .  A
C589        H597   1.083       .  S
C590        C591   1.406       .  A
C590        H598   1.083       .  S
C591        C592   1.415       .  A
C592        C593   1.396       .  A
C592       C1102   1.482       .  S
C593        C594   1.396       .  A
C593        H600   1.086       .  S
C594       C1138   1.483   1_554  S
C601        C602   1.395       .  A
C601        C606   1.414       .  A
C601       C1510   1.482   1_655  S
C602        C603   1.396       .  A
C602        H621   1.086       .  S
C603        C604   1.414       .  A
C603       C1462   1.479       .  S
C604        C605   1.421       .  A
C604        C611   1.407       .  A
C605        C606   1.422       .  A
C605        C610   1.420       .  A
C606        C607   1.404   1_655  A
C607        C608   1.394       .  A
C607        H617   1.083       .  S
C608        C609   1.406   1_455  A
C608        H618   1.083       .  S
C609        C610   1.421       .  A
C609        C616   1.413       .  A
C610        C613   1.423       .  A
C611        C612   1.397       .  A
C611        H619   1.083       .  S
C612        C613   1.405       .  A
C612        H620   1.083       .  S
C613        C614   1.415       .  A
C614        C615   1.397       .  A
C614        C886   1.483       .  S
C615        C616   1.395       .  A
C615        H622   1.086       .  S
C616        C934   1.481   1_655  S
C623        C624   1.395       .  A
C623        C628   1.414       .  A
C623       C1150   1.481       .  S
C624        C625   1.395   1_545  A
C624        H643   1.086       .  S
C625        C626   1.414       .  A
C625       C1186   1.481       .  S
C626        C627   1.422   1_565  A
C626        C633   1.405       .  A
C627        C628   1.422       .  A
C627        C632   1.420       .  A
C628        C629   1.405       .  A
C629        C630   1.396       .  A
C629        H639   1.083       .  S
C630        C631   1.406       .  A
C630        H640   1.083       .  S
C631        C632   1.422       .  A
C631        C638   1.415       .  A
C632        C635   1.422   1_545  A
C633        C634   1.395       .  A
C633        H641   1.083       .  S
C634        C635   1.406       .  A
C634        H642   1.083       .  S
C635        C636   1.415       .  A
C636        C637   1.396   1_565  A
C636        C898   1.483       .  S
C637        C638   1.398       .  A
C637        H644   1.086       .  S
C638        C862   1.483       .  S
C645        C646   1.396       .  A
C645        C650   1.414       .  A
C645       C1474   1.479   1_554  S
C646        C647   1.394       .  A
C646        H665   1.086       .  S
C647        C648   1.414       .  A
C647       C1438   1.482       .  S
C648        C649   1.423       .  A
C648        C655   1.405       .  A
C649        C650   1.421       .  A
C649        C654   1.420       .  A
C650        C651   1.406   1_554  A
C651        C652   1.397       .  A
C651        H661   1.083       .  S
C652        C653   1.406   1_556  A
C652        H662   1.083       .  S
C653        C654   1.423       .  A
C653        C660   1.416       .  A
C654        C657   1.421       .  A
C655        C656   1.395       .  A
C655        H663   1.083       .  S
C656        C657   1.405       .  A
C656        H664   1.083       .  S
C657        C658   1.413       .  A
C658        C659   1.395       .  A
C658       C1219   1.480       .  S
C659        C660   1.396       .  A
C659        H666   1.086       .  S
C660       C1174   1.482   1_554  S
C667        C668   1.402       .  A
C667        C672   1.405       .  A
C668        C669   1.400       .  A
C668        H673   1.084       .  S
C669        C670   1.410       .  A
C669        O674   1.373       .  S
C670        C671   1.408       .  A
C671        C672   1.400       .  A
C671        H675   1.083       .  S
C672        O676   1.372       .  S
O674        H678   0.992       .  S
O676        H677   0.991       .  S
C679        C680   1.400       .  A
C679        C684   1.406       .  A
C680        C681   1.397       .  A
C680        H685   1.084       .  S
C681        C682   1.411       .  A
C681        O686   1.372       .  S
C682        C683   1.407       .  A
C683        C684   1.401       .  A
C683        H687   1.083       .  S
C684        O688   1.372       .  S
O686        H690   0.992       .  S
O688        H689   0.992       .  S
C691        C692   1.408       .  A
C691        C696   1.418       .  A
C692        C693   1.406       .  A
C692        H697   1.083       .  S
C693        C694   1.408       .  A
C693        O698   1.371       .  S
C694        C695   1.398       .  A
C695        C696   1.397       .  A
C695        H699   1.084       .  S
C696        O700   1.372       .  S
O698        H702   0.992       .  S
O700        H701   0.992   1_455  S
C703        C704   1.402       .  A
C703        C708   1.404       .  A
C704        C705   1.400       .  A
C704        H709   1.084       .  S
C705        C706   1.413       .  A
C705        O710   1.372       .  S
C706        C707   1.407       .  A
C707        C708   1.400       .  A
C707        H711   1.083       .  S
C708        O712   1.371       .  S
O710        H714   0.992       .  S
O712        H713   0.992       .  S
C715        C716   1.405       .  A
C715        C720   1.411       .  A
C716        C717   1.400       .  A
C716        H721   1.084       .  S
C717        C718   1.407       .  A
C717        O722   1.372       .  S
C718        C719   1.403       .  A
C719        C720   1.402       .  A
C719        H723   1.083       .  S
C720        O724   1.371       .  S
O722        H726   0.992   1_455  S
O724        H725   0.992       .  S
C727        C728   1.410       .  A
C727        C732   1.417       .  A
C728        C729   1.399       .  A
C728        H733   1.083       .  S
C729        C730   1.404       .  A
C729        O734   1.372       .  S
C730        C731   1.401       .  A
C731        C732   1.406       .  A
C731        H735   1.084       .  S
C732        O736   1.371       .  S
O734        H738   0.992       .  S
O736        H737   0.992       .  S
C739        C740   1.406       .  A
C739        C744   1.411       .  A
C740        C741   1.400       .  A
C740        H745   1.083       .  S
C741        C742   1.406       .  A
C741        O746   1.371       .  S
C742        C743   1.402       .  A
C743        C744   1.402       .  A
C743        H747   1.084       .  S
C744        O748   1.373       .  S
O746        H750   0.991       .  S
O748        H749   0.992       .  S
C751        C752   1.407       .  A
C751        C756   1.411       .  A
C752        C753   1.402       .  A
C752        H757   1.083       .  S
C753        C754   1.407       .  A
C753        O758   1.372       .  S
C754        C755   1.402       .  A
C755        C756   1.399       .  A
C755        H759   1.084       .  S
C756        O760   1.372       .  S
O758        H762   0.992       .  S
O760        H761   0.992       .  S
C763        C764   1.404       .  A
C763        C768   1.408       .  A
C764        C765   1.404       .  A
C764        H769   1.084       .  S
C765        C766   1.411       .  A
C765        O770   1.371       .  S
C766        C767   1.408       .  A
C767        C768   1.401       .  A
C767        H771   1.084       .  S
C768        O772   1.372       .  S
O770        H774   0.992       .  S
O772        H773   0.992       .  S
C775        C776   1.404       .  A
C775        C780   1.405       .  A
C776        C777   1.402       .  A
C776        H781   1.084       .  S
C777        C778   1.412       .  A
C777        O782   1.373       .  S
C778        C779   1.409       .  A
C779        C780   1.401       .  A
C779        H783   1.083       .  S
C780        O784   1.371       .  S
O782        H786   0.992       .  S
O784        H785   0.992       .  S
C787        C788   1.403       .  A
C787        C792   1.405       .  A
C788        C789   1.400       .  A
C788        H793   1.084       .  S
C789        C790   1.412       .  A
C789        O794   1.371       .  S
C790        C791   1.409       .  A
C791        C792   1.400       .  A
C791        H795   1.083       .  S
C792        O796   1.372       .  S
O794        H798   0.991       .  S
O796        H797   0.992       .  S
C799        C800   1.402       .  A
C799        C804   1.408       .  A
C800        C801   1.401       .  A
C800        H805   1.084       .  S
C801        C802   1.413       .  A
C801        O806   1.372       .  S
C802        C803   1.409       .  A
C803        C804   1.403       .  A
C803        H807   1.084       .  S
C804        O808   1.372       .  S
O806        H810   0.992       .  S
O808        H809   0.992       .  S
C811        C812   1.405       .  A
C811        C816   1.413       .  A
C812        C813   1.399       .  A
C812        H817   1.084       .  S
C813        C814   1.407       .  A
C813        O818   1.372       .  S
C814        C815   1.400       .  A
C815        C816   1.399       .  A
C815        H819   1.084       .  S
C816        O820   1.372       .  S
O818        H822   0.992       .  S
O820        H821   0.992       .  S
C823        C824   1.405       .  A
C823        C828   1.414       .  A
C824        C825   1.400       .  A
C824        H829   1.084       .  S
C825        C826   1.406       .  A
C825        O830   1.371       .  S
C826        C827   1.400       .  A
C827        C828   1.399       .  A
C827        H831   1.084       .  S
C828        O832   1.372       .  S
O830        H834   0.992       .  S
O832        H833   0.992       .  S
C835        C836   1.398       .  A
C835        C840   1.403       .  A
C836        C837   1.404       .  A
C836        H841   1.084       .  S
C837        C838   1.420       .  A
C837        O842   1.373   1_455  S
C838        C839   1.411       .  A
C839        C840   1.404       .  A
C839        H843   1.083       .  S
C840        O844   1.371       .  S
O842        H846   0.991   1_655  S
O844        H845   0.992       .  S
C847        C848   1.406       .  A
C847        C852   1.413       .  A
C848        C849   1.400       .  A
C848        H853   1.084       .  S
C849        C850   1.407       .  A
C849        O854   1.372       .  S
C850        C851   1.401       .  A
C851        C852   1.400       .  A
C851        H855   1.084       .  S
C852        O856   1.372       .  S
O854        H858   0.992       .  S
O856        H857   0.992       .  S
C859        C860   1.406       .  A
C859        C864   1.413       .  A
C860        C861   1.399       .  A
C860        H865   1.084       .  S
C861        C862   1.407       .  A
C861        O866   1.371       .  S
C862        C863   1.402       .  A
C863        C864   1.401       .  A
C863        H867   1.084       .  S
C864        O868   1.372       .  S
O866        H870   0.992       .  S
O868        H869   0.992       .  S
C871        C872   1.405       .  A
C871        C876   1.411       .  A
C872        C873   1.399       .  A
C872        H877   1.084       .  S
C873        C874   1.408       .  A
C873        O878   1.371       .  S
C874        C875   1.403       .  A
C875        C876   1.402       .  A
C875        H879   1.084       .  S
C876        O880   1.372       .  S
O878        H882   0.992       .  S
O880        H881   0.992       .  S
C883        C884   1.406       .  A
C883        C888   1.414       .  A
C884        C885   1.400       .  A
C884        H889   1.083       .  S
C885        C886   1.406       .  A
C885        O890   1.371       .  S
C886        C887   1.403       .  A
C887        C888   1.404       .  A
C887        H891   1.084       .  S
C888        O892   1.372       .  S
O890        H894   0.992       .  S
O892        H893   0.992       .  S
C895        C896   1.406       .  A
C895        C900   1.412       .  A
C896        C897   1.401       .  A
C896        H901   1.083       .  S
C897        C898   1.406       .  A
C897        O902   1.372       .  S
C898        C899   1.403       .  A
C899        C900   1.404       .  A
C899        H903   1.084       .  S
C900        O904   1.373       .  S
O902        H906   0.992       .  S
O904        H905   0.992       .  S
C907        C908   1.403       .  A
C907        C912   1.405       .  A
C908        C909   1.407       .  A
C908        H913   1.083       .  S
C909        C910   1.415       .  A
C909        O914   1.371       .  S
C910        C911   1.411       .  A
C911        C912   1.402       .  A
C911        H915   1.083       .  S
C912        O916   1.372       .  S
O914        H918   0.992       .  S
O916        H917   0.992       .  S
C919        C920   1.401       .  A
C919        C924   1.406       .  A
C920        C921   1.402       .  A
C920        H925   1.084       .  S
C921        C922   1.413       .  A
C921        O926   1.372       .  S
C922        C923   1.406       .  A
C923        C924   1.399       .  A
C923        H927   1.084       .  S
C924        O928   1.372       .  S
O926        H930   0.992       .  S
O928        H929   0.992       .  S
C931        C932   1.407       .  A
C931        C936   1.416       .  A
C932        C933   1.400       .  A
C932        H937   1.083       .  S
C933        C934   1.406       .  A
C933        O938   1.371       .  S
C934        C935   1.400       .  A
C935        C936   1.400       .  A
C935        H939   1.084       .  S
C936        O940   1.371       .  S
O938        H942   0.992       .  S
O940        H941   0.992       .  S
C943        C944   1.401       .  A
C943        C948   1.409       .  A
C944        C945   1.397       .  A
C944        H949   1.084       .  S
C945        C946   1.412       .  A
C945        O950   1.371       .  S
C946        C947   1.407       .  A
C947        C948   1.406       .  A
C947        H951   1.083       .  S
C948        O952   1.371       .  S
O950        H954   0.992       .  S
O952        H953   0.992       .  S
C955        C956   1.400       .  A
C955        C960   1.406       .  A
C956        C957   1.399       .  A
C956        H961   1.084       .  S
C957        C958   1.414       .  A
C957        O962   1.371       .  S
C958        C959   1.407       .  A
C959        C960   1.400       .  A
C959        H963   1.083       .  S
C960        O964   1.371       .  S
O962        H966   0.992       .  S
O964        H965   0.992       .  S
C967        C968   1.405       .  A
C967        C972   1.414       .  A
C968        C969   1.399       .  A
C968        H973   1.083       .  S
C969        C970   1.408       .  A
C969        O974   1.371       .  S
C970        C971   1.402       .  A
C971        C972   1.404       .  A
C971        H975   1.084       .  S
C972        O976   1.372       .  S
O974        H978   0.991       .  S
O976        H977   0.992       .  S
C979        C980   1.404       .  A
C979        C984   1.409       .  A
C980        C981   1.404       .  A
C980        H985   1.084       .  S
C981        C982   1.411       .  A
C981        O986   1.372       .  S
C982        C983   1.406       .  A
C983        C984   1.400       .  A
C983        H987   1.084       .  S
C984        O988   1.372       .  S
O986        H990   0.992       .  S
O988        H989   0.992       .  S
C991        C992   1.407       .  A
C991        C996   1.415       .  A
C992        C993   1.401       .  A
C992        H997   1.083       .  S
C993        C994   1.407       .  A
C993        O998   1.371       .  S
C994        C995   1.402       .  A
C995        C996   1.403       .  A
C995        H999   1.084       .  S
C996       O1000   1.372       .  S
O998       H1002   0.992       .  S
O1000      H1001   0.992       .  S
C1003      C1004   1.407       .  A
C1003      C1008   1.412       .  A
C1004      C1005   1.403       .  A
C1004      H1009   1.083       .  S
C1005      C1006   1.406       .  A
C1005      O1010   1.371       .  S
C1006      C1007   1.403       .  A
C1007      C1008   1.404       .  A
C1007      H1011   1.084       .  S
C1008      O1012   1.373       .  S
O1010      H1014   0.992       .  S
O1012      H1013   0.992       .  S
C1015      C1016   1.405       .  A
C1015      C1020   1.407       .  A
C1016      C1017   1.406       .  A
C1016      H1021   1.083       .  S
C1017      C1018   1.413       .  A
C1017      O1022   1.371       .  S
C1018      C1019   1.408       .  A
C1019      C1020   1.400       .  A
C1019      H1023   1.083       .  S
C1020      O1024   1.372       .  S
O1022      H1026   0.992       .  S
O1024      H1025   0.992       .  S
C1027      C1028   1.408       .  A
C1027      C1032   1.410       .  A
C1028      C1029   1.402       .  A
C1028      H1033   1.084       .  S
C1029      C1030   1.406       .  A
C1029      O1034   1.371       .  S
C1030      C1031   1.404       .  A
C1031      C1032   1.404       .  A
C1031      H1035   1.084       .  S
C1032      O1036   1.372       .  S
O1034      H1038   0.991       .  S
O1036      H1037   0.992       .  S
C1039      C1040   1.407       .  A
C1039      C1044   1.415       .  A
C1040      C1041   1.402       .  A
C1040      H1045   1.083       .  S
C1041      C1042   1.407       .  A
C1041      O1046   1.372       .  S
C1042      C1043   1.401       .  A
C1043      C1044   1.402       .  A
C1043      H1047   1.084       .  S
C1044      O1048   1.371       .  S
O1046      H1050   0.992   1_556  S
O1048      H1049   0.992       .  S
C1051      C1052   1.406       .  A
C1051      C1056   1.409       .  A
C1052      C1053   1.408       .  A
C1052      H1057   1.083       .  S
C1053      C1054   1.413       .  A
C1053      O1058   1.371       .  S
C1054      C1055   1.408       .  A
C1055      C1056   1.403       .  A
C1055      H1059   1.083   1_556  S
C1056      O1060   1.372       .  S
O1058      H1062   0.992       .  S
O1060      H1061   0.992   1_556  S
C1063      C1064   1.406       .  A
C1063      C1068   1.416       .  A
C1064      C1065   1.401       .  A
C1064      H1069   1.083       .  S
C1065      C1066   1.408       .  A
C1065      O1070   1.372       .  S
C1066      C1067   1.400       .  A
C1067      C1068   1.400       .  A
C1067      H1071   1.084       .  S
C1068      O1072   1.372       .  S
O1070      H1074   0.992   1_556  S
O1072      H1073   0.992       .  S
C1075      C1076   1.407       .  A
C1075      C1080   1.411       .  A
C1076      C1077   1.399       .  A
C1076      H1081   1.083       .  S
C1077      C1078   1.405       .  A
C1077      O1082   1.372       .  S
C1078      C1079   1.402       .  A
C1079      C1080   1.401       .  A
C1079      H1083   1.084       .  S
C1080      O1084   1.373       .  S
O1082      H1086   0.992       .  S
O1084      H1085   0.992       .  S
C1087      C1088   1.404       .  A
C1087      C1092   1.408       .  A
C1088      C1089   1.401       .  A
C1088      H1093   1.084       .  S
C1089      C1090   1.414       .  A
C1089      O1094   1.372       .  S
C1090      C1091   1.406       .  A
C1091      C1092   1.403       .  A
C1091      H1095   1.083       .  S
C1092      O1096   1.372       .  S
O1094      H1098   0.992       .  S
O1096      H1097   0.992       .  S
C1099      C1100   1.406       .  A
C1099      C1104   1.414       .  A
C1100      C1101   1.400       .  A
C1100      H1105   1.084       .  S
C1101      C1102   1.407       .  A
C1101      O1106   1.372       .  S
C1102      C1103   1.401       .  A
C1103      C1104   1.401       .  A
C1103      H1107   1.084       .  S
C1104      O1108   1.372       .  S
O1106      H1110   0.992       .  S
O1108      H1109   0.992       .  S
C1111      C1112   1.402       .  A
C1111      C1116   1.406       .  A
C1112      C1113   1.399       .  A
C1112      H1117   1.084       .  S
C1113      C1114   1.412       .  A
C1113      O1118   1.371       .  S
C1114      C1115   1.409       .  A
C1115      C1116   1.401       .  A
C1115      H1119   1.083       .  S
C1116      O1120   1.372       .  S
O1118      H1122   0.991       .  S
O1120      H1121   0.992       .  S
C1123      C1124   1.399       .  A
C1123      C1128   1.406       .  A
C1124      C1125   1.400       .  A
C1124      H1129   1.084       .  S
C1125      C1126   1.417       .  A
C1125      O1130   1.371       .  S
C1126      C1127   1.410       .  A
C1127      C1128   1.405       .  A
C1127      H1131   1.083       .  S
C1128      O1132   1.371       .  S
O1130      H1134   0.992       .  S
O1132      H1133   0.992       .  S
C1135      C1136   1.406       .  A
C1135      C1140   1.413       .  A
C1136      C1137   1.400       .  A
C1136      H1141   1.084       .  S
C1137      C1138   1.406       .  A
C1137      O1142   1.372       .  S
C1138      C1139   1.402       .  A
C1139      C1140   1.403       .  A
C1139      H1143   1.084       .  S
C1140      O1144   1.372       .  S
O1142      H1146   0.992   1_556  S
O1144      H1145   0.992       .  S
C1147      C1148   1.407       .  A
C1147      C1152   1.412       .  A
C1148      C1149   1.400       .  A
C1148      H1153   1.083       .  S
C1149      C1150   1.406       .  A
C1149      O1154   1.371       .  S
C1150      C1151   1.402       .  A
C1151      C1152   1.402       .  A
C1151      H1155   1.084       .  S
C1152      O1156   1.373       .  S
O1154      H1158   0.991       .  S
O1156      H1157   0.992       .  S
C1159      C1160   1.405       .  A
C1159      C1164   1.407       .  A
C1160      C1161   1.405       .  A
C1160      H1165   1.084       .  S
C1161      C1162   1.412       .  A
C1161      O1166   1.371       .  S
C1162      C1163   1.407       .  A
C1163      C1164   1.398       .  A
C1163      H1167   1.082   1_556  S
C1164      O1168   1.372       .  S
O1166      H1170   0.992       .  S
O1168      H1169   0.992       .  S
C1171      C1172   1.407       .  A
C1171      C1176   1.412       .  A
C1172      C1173   1.401       .  A
C1172      H1177   1.083       .  S
C1173      C1174   1.406       .  A
C1173      O1178   1.371       .  S
C1174      C1175   1.403       .  A
C1175      C1176   1.401       .  A
C1175      H1179   1.084       .  S
C1176      O1180   1.372       .  S
O1178      H1182   0.991       .  S
O1180      H1181   0.992       .  S
C1183      C1184   1.407       .  A
C1183      C1188   1.413       .  A
C1184      C1185   1.399       .  A
C1184      H1189   1.084       .  S
C1185      C1186   1.407       .  A
C1185      O1190   1.371       .  S
C1186      C1187   1.401       .  A
C1187      C1188   1.401       .  A
C1187      H1191   1.084       .  S
C1188      O1192   1.372       .  S
O1190      H1194   0.991       .  S
O1192      H1193   0.992       .  S
C1195      C1196   1.404       .  A
C1195      C1200   1.410       .  A
C1196      C1197   1.399       .  A
C1196      H1201   1.084       .  S
C1197      C1198   1.411       .  A
C1197      O1202   1.373   1_565  S
C1198      C1199   1.405       .  A
C1199      C1200   1.403       .  A
C1199      H1203   1.084       .  S
C1200      O1204   1.371       .  S
O1202      H1206   0.992       .  S
O1204      H1205   0.992       .  S
C1207      C1208   1.405       .  A
C1207      C1212   1.413       .  A
C1208      C1209   1.401       .  A
C1208      H1213   1.084       .  S
C1209      C1210   1.407       .  A
C1209      O1214   1.372       .  S
C1210      C1211   1.401       .  A
C1211      C1212   1.401       .  A
C1211      H1215   1.084       .  S
C1212      O1216   1.372       .  S
O1214      H1218   0.992       .  S
O1216      H1217   0.992       .  S
C1219      C1220   1.402       .  A
C1219      C1224   1.405       .  A
C1220      C1221   1.403       .  A
C1220      H1225   1.084       .  S
C1221      C1222   1.410       .  A
C1221      O1226   1.373       .  S
C1222      C1223   1.407       .  A
C1223      C1224   1.400       .  A
C1223      H1227   1.083       .  S
C1224      O1228   1.371       .  S
O1226      H1230   0.992       .  S
O1228      H1229   0.992       .  S
C1231      C1232   1.404       .  A
C1231      C1236   1.406       .  A
C1232      C1233   1.407       .  A
C1232      H1237   1.084       .  S
C1233      C1234   1.415       .  A
C1233      O1238   1.371       .  S
C1234      C1235   1.408       .  A
C1235      C1236   1.401       .  A
C1235      H1239   1.084       .  S
C1236      O1240   1.372       .  S
O1238      H1242   0.992       .  S
O1240      H1241   0.992       .  S
C1243      C1244   1.408       .  A
C1243      C1248   1.409       .  A
C1244      C1245   1.401       .  A
C1244      H1249   1.084       .  S
C1245      C1246   1.406       .  A
C1245      O1250   1.372       .  S
C1246      C1247   1.403       .  A
C1247      C1248   1.402       .  A
C1247      H1251   1.084       .  S
C1248      O1252   1.372       .  S
O1250      H1254   0.991       .  S
O1252      H1253   0.992       .  S
C1255      C1256   1.408       .  A
C1255      C1260   1.412       .  A
C1256      C1257   1.400       .  A
C1256      H1261   1.083       .  S
C1257      C1258   1.405       .  A
C1257      O1262   1.372       .  S
C1258      C1259   1.403       .  A
C1259      C1260   1.400       .  A
C1259      H1263   1.084       .  S
C1260      O1264   1.371       .  S
O1262      H1266   0.992       .  S
O1264      H1265   0.991       .  S
C1267      C1268   1.404       .  A
C1267      C1272   1.405       .  A
C1268      C1269   1.407       .  A
C1268      H1273   1.084       .  S
C1269      C1270   1.415       .  A
C1269      O1274   1.371       .  S
C1270      C1271   1.409       .  A
C1271      C1272   1.399       .  A
C1271      H1275   1.083       .  S
C1272      O1276   1.372       .  S
O1274      H1278   0.992       .  S
O1276      H1277   0.992       .  S
C1279      C1280   1.402       .  A
C1279      C1284   1.406       .  A
C1280      C1281   1.403       .  A
C1280      H1285   1.084       .  S
C1281      C1282   1.413       .  A
C1281      O1286   1.372       .  S
C1282      C1283   1.407       .  A
C1283      C1284   1.402       .  A
C1283      H1287   1.083       .  S
C1284      O1288   1.371       .  S
O1286      H1290   0.992       .  S
O1288      H1289   0.992       .  S
C1291      C1292   1.401       .  A
C1291      C1296   1.406       .  A
C1292      C1293   1.402       .  A
C1292      H1297   1.084       .  S
C1293      C1294   1.414       .  A
C1293      O1298   1.372       .  S
C1294      C1295   1.407       .  A
C1295      C1296   1.401       .  A
C1295      H1299   1.083       .  S
C1296      O1300   1.371       .  S
O1298      H1302   0.992       .  S
O1300      H1301   0.992       .  S
C1303      C1304   1.407       .  A
C1303      C1308   1.413       .  A
C1304      C1305   1.399       .  A
C1304      H1309   1.084   1_556  S
C1305      C1306   1.408       .  A
C1305      O1310   1.373       .  S
C1306      C1307   1.407       .  A
C1307      C1308   1.408       .  A
C1307      H1311   1.083       .  S
C1308      O1312   1.371       .  S
O1310      H1314   0.992   1_556  S
O1312      H1313   0.992       .  S
C1315      C1316   1.405       .  A
C1315      C1320   1.414       .  A
C1316      C1317   1.401       .  A
C1316      H1321   1.083       .  S
C1317      C1318   1.407       .  A
C1317      O1322   1.372       .  S
C1318      C1319   1.402       .  A
C1319      C1320   1.403       .  A
C1319      H1323   1.084       .  S
C1320      O1324   1.372       .  S
O1322      H1326   0.992   1_556  S
O1324      H1325   0.992       .  S
C1327      C1328   1.407       .  A
C1327      C1332   1.414       .  A
C1328      C1329   1.402       .  A
C1328      H1333   1.083       .  S
C1329      C1330   1.406       .  A
C1329      O1334   1.372       .  S
C1330      C1331   1.401       .  A
C1331      C1332   1.403       .  A
C1331      H1335   1.084       .  S
C1332      O1336   1.371       .  S
O1334      H1338   0.992       .  S
O1336      H1337   0.992       .  S
C1339      C1340   1.405       .  A
C1339      C1344   1.410       .  A
C1340      C1341   1.404       .  A
C1340      H1345   1.084       .  S
C1341      C1342   1.413       .  A
C1341      O1346   1.372       .  S
C1342      C1343   1.407       .  A
C1343      C1344   1.406       .  A
C1343      H1347   1.083       .  S
C1344      O1348   1.372       .  S
O1346      H1350   0.992       .  S
O1348      H1349   0.992       .  S
C1351      C1352   1.405       .  A
C1351      C1356   1.413       .  A
C1352      C1353   1.400       .  A
C1352      H1357   1.084       .  S
C1353      C1354   1.407       .  A
C1353      O1358   1.371       .  S
C1354      C1355   1.401       .  A
C1355      C1356   1.400       .  A
C1355      H1359   1.084       .  S
C1356      O1360   1.372       .  S
O1358      H1362   0.992       .  S
O1360      H1361   0.992       .  S
C1363      C1364   1.404       .  A
C1363      C1368   1.406       .  A
C1364      C1365   1.404       .  A
C1364      H1369   1.084       .  S
C1365      C1366   1.411       .  A
C1365      O1370   1.373       .  S
C1366      C1367   1.407       .  A
C1367      C1368   1.401       .  A
C1367      H1371   1.083       .  S
C1368      O1372   1.371       .  S
O1370      H1374   0.992       .  S
O1372      H1373   0.992       .  S
C1375      C1376   1.403       .  A
C1375      C1380   1.410       .  A
C1376      C1377   1.400       .  A
C1376      H1381   1.084       .  S
C1377      C1378   1.413       .  A
C1377      O1382   1.372       .  S
C1378      C1379   1.407       .  A
C1379      C1380   1.406       .  A
C1379      H1383   1.084       .  S
C1380      O1384   1.372       .  S
O1382      H1386   0.992       .  S
O1384      H1385   0.992       .  S
C1387      C1388   1.403       .  A
C1387      C1392   1.406       .  A
C1388      C1389   1.402       .  A
C1388      H1393   1.084       .  S
C1389      C1390   1.409       .  A
C1389      O1394   1.372       .  S
C1390      C1391   1.406       .  A
C1391      C1392   1.399       .  A
C1391      H1395   1.084       .  S
C1392      O1396   1.371       .  S
O1394      H1398   0.992       .  S
O1396      H1397   0.991       .  S
C1399      C1400   1.405       .  A
C1399      C1404   1.409       .  A
C1400      C1401   1.398       .  A
C1400      H1405   1.084       .  S
C1401      C1402   1.405       .  A
C1401      O1406   1.371       .  S
C1402      C1403   1.404       .  A
C1403      C1404   1.404       .  A
C1403      H1407   1.084       .  S
C1404      O1408   1.373       .  S
O1406      H1410   0.992       .  S
O1408      H1409   0.992       .  S
C1411      C1412   1.402       .  A
C1411      C1416   1.406       .  A
C1412      C1413   1.402       .  A
C1412      H1417   1.084       .  S
C1413      C1414   1.417       .  A
C1413      O1418   1.372   1_455  S
C1414      C1415   1.407       .  A
C1415      C1416   1.402       .  A
C1415      H1419   1.083       .  S
C1416      O1420   1.371       .  S
O1418      H1422   0.992       .  S
O1420      H1421   0.992       .  S
C1423      C1424   1.406       .  A
C1423      C1428   1.415       .  A
C1424      C1425   1.403       .  A
C1424      H1429   1.083       .  S
C1425      C1426   1.408       .  A
C1425      O1430   1.371       .  S
C1426      C1427   1.400       .  A
C1427      C1428   1.401       .  A
C1427      H1431   1.084       .  S
C1428      O1432   1.372       .  S
O1430      H1434   0.992       .  S
O1432      H1433   0.992       .  S
C1435      C1436   1.407       .  A
C1435      C1440   1.410       .  A
C1436      C1437   1.401       .  A
C1436      H1441   1.084       .  S
C1437      C1438   1.406       .  A
C1437      O1442   1.372       .  S
C1438      C1439   1.403       .  A
C1439      C1440   1.404       .  A
C1439      H1443   1.084       .  S
C1440      O1444   1.372       .  S
O1442      H1446   0.992       .  S
O1444      H1445   0.992       .  S
C1447      C1448   1.400       .  A
C1447      C1452   1.408       .  A
C1448      C1449   1.402       .  A
C1448      H1453   1.084       .  S
C1449      C1450   1.417       .  A
C1449      O1454   1.370       .  S
C1450      C1451   1.412       .  A
C1451      C1452   1.410       .  A
C1451      H1455   1.083       .  S
C1452      O1456   1.371       .  S
O1454      H1458   0.992       .  S
O1456      H1457   0.992       .  S
C1459      C1460   1.406       .  A
C1459      C1464   1.410       .  A
C1460      C1461   1.399       .  A
C1460      H1465   1.084       .  S
C1461      C1462   1.406       .  A
C1461      O1466   1.372       .  S
C1462      C1463   1.402       .  A
C1463      C1464   1.402       .  A
C1463      H1467   1.084       .  S
C1464      O1468   1.373       .  S
O1466      H1470   0.992       .  S
O1468      H1469   0.992       .  S
C1471      C1472   1.406       .  A
C1471      C1476   1.410       .  A
C1472      C1473   1.399       .  A
C1472      H1477   1.084       .  S
C1473      C1474   1.406       .  A
C1473      O1478   1.372       .  S
C1474      C1475   1.402       .  A
C1475      C1476   1.403       .  A
C1475      H1479   1.084       .  S
C1476      O1480   1.373       .  S
O1478      H1482   0.991       .  S
O1480      H1481   0.992       .  S
C1483      C1484   1.406       .  A
C1483      C1488   1.407       .  A
C1484      C1485   1.404       .  A
C1484      H1489   1.083       .  S
C1485      C1486   1.411       .  A
C1485      O1490   1.371       .  S
C1486      C1487   1.405       .  A
C1487      C1488   1.397       .  A
C1487      H1491   1.081   1_556  S
C1488      O1492   1.372       .  S
O1490      H1494   0.992       .  S
O1492      H1493   0.992       .  S
C1495      C1496   1.407       .  A
C1495      C1500   1.414       .  A
C1496      C1497   1.402       .  A
C1496      H1501   1.083       .  S
C1497      C1498   1.408       .  A
C1497      O1502   1.372       .  S
C1498      C1499   1.401       .  A
C1499      C1500   1.402       .  A
C1499      H1503   1.084       .  S
C1500      O1504   1.372       .  S
O1502      H1506   0.992       .  S
O1504      H1505   0.992       .  S
C1507      C1508   1.406       .  A
C1507      C1512   1.411       .  A
C1508      C1509   1.401       .  A
C1508      H1513   1.084       .  S
C1509      C1510   1.407       .  A
C1509      O1514   1.372       .  S
C1510      C1511   1.402       .  A
C1511      C1512   1.402       .  A
C1511      H1515   1.084       .  S
C1512      O1516   1.371       .  S
O1514      H1518   0.992   1_455  S
O1516      H1517   0.992       .  S
C1519      C1520   1.403       .  A
C1519      C1524   1.409       .  A
C1520      C1521   1.402       .  A
C1520      H1525   1.084       .  S
C1521      C1522   1.414       .  A
C1521      O1526   1.372   1_455  S
C1522      C1523   1.408       .  A
C1523      C1524   1.407       .  A
C1523      H1527   1.083       .  S
C1524      O1528   1.371       .  S
O1526      H1530   0.992       .  S
O1528      H1529   0.992       .  S
