geometry optimzed in LAMMPS
_audit_creation_date              2020-12-01 
_audit_creation_method            'lammps2cif' 
_symmetry_space_group_name_H-M    'P1' 
_symmetry_Int_Tables_number       1 
_symmetry_cell_setting            triclinic 
loop_ 
_symmetry_equiv_pos_as_xyz 
  x,y,z 
_cell_length_a                    34.73854508 
_cell_length_b                    35.27630094688588 
_cell_length_c                    32.69523982407403 
_cell_angle_alpha                 93.57491858779564 
_cell_angle_beta                  91.53378630637717 
_cell_angle_gamma                 89.99533580015945 
loop_ 
_atom_site_label 
_atom_site_type_symbol 
_atom_site_fract_x 
_atom_site_fract_y 
_atom_site_fract_z 
_atom_site_charge 
C1          C  0.24777376  0.29363627  0.72617194     0.86900
C2          C  0.21182508  0.28492135  0.74990345    -0.53400
C3          C  0.21456338  0.25255856  0.77062653     0.09800
C4          C  0.25291364  0.23097703  0.76467962     0.20700
C5          C  0.28108012  0.29348363  0.75848479    -0.54100
C6          C  0.28417268  0.26039116  0.77838062     0.09900
C7          C  0.25480561  0.25823984  0.69845483    -0.53600
C8          C  0.25752818  0.22555378  0.71793607     0.10400
H9          H  0.18732265  0.30400622  0.75218705     0.15000
H10         H  0.25464556  0.20400768  0.78034845     0.00700
H11         H  0.30051019  0.31701886  0.76559232     0.15300
H12         H  0.25704244  0.25899744  0.66540094     0.15100
O13         O  0.15112170  0.06394195  0.49762023    -0.74900
O14         O  0.20160223  0.10581722  0.50046551    -0.53800
C15         C  0.16536057  0.09772490  0.49947404     0.78800
O16         O  0.25338953  0.43787532  0.61442491    -0.59500
O17         O  0.24528477  0.38949060  0.56523761    -0.52600
C18         C  0.24826412  0.40288014  0.60280110     0.70800
O19         O  0.25492866  0.06409100  0.61497047    -0.74100
O20         O  0.26416309  0.10540752  0.56511468    -0.54700
C21         C  0.26044389  0.09744404  0.60275886     0.76800
O22         O  0.14336072  0.43523614  0.49417140    -0.59200
O23         O  0.18846335  0.38821857  0.49826499    -0.52400
C24         C  0.15347370  0.40021683  0.49603912     0.73400
Zr25       Zr  0.17516532  0.49736065  0.49531866     2.54700
O26         O  0.12424105  0.50183531  0.54507265    -0.79800
O27         O  0.13029301  0.49833803  0.43682428    -0.93200
Zr28       Zr  0.25445323  0.49840314  0.58460831     2.64700
O29         O  0.20070704  0.00636252  0.63405961    -0.98200
O30         O  0.30325293  0.50060605  0.63958180    -0.80200
O31         O  0.21517611  0.03607147  0.54068811    -0.83600
O32         O  0.21199383  0.46115206  0.54093490    -2.18300
O33         O  0.25367139  0.42322500  0.38457739    -0.67000
O34         O  0.24757281  0.38165965  0.43483675    -0.51500
C35         C  0.24975689  0.38972713  0.39698667     0.71800
O36         O  0.36776976  0.05155206  0.50513592    -0.59900
O37         O  0.32281656  0.09877621  0.50206425    -0.51900
C38         C  0.35780277  0.08668520  0.50380776     0.73600
O39         O  0.36081508  0.42277562  0.50238136    -0.71300
O40         O  0.31053876  0.38083737  0.50279766    -0.50000
C41         C  0.34681581  0.38896832  0.50257139     0.75000
O42         O  0.26673120  0.04771691  0.38578995    -0.66600
O43         O  0.26226713  0.09635359  0.43506133    -0.53800
C44         C  0.26552930  0.08287409  0.39779543     0.73400
Zr45       Zr  0.25791814  0.48720244  0.41490247     2.77500
O46         O  0.30920688  0.48006809  0.36554275    -0.97400
O47         O  0.20630383  0.48865406  0.36315335    -0.78200
Zr48       Zr  0.33700201  0.48820967  0.50372058     2.70100
O49         O  0.38613547  0.48385358  0.45188719    -0.79400
O50         O  0.38246036  0.48781804  0.56166488    -0.98500
Zr51       Zr  0.26018101  0.06730856  0.50045623     2.21500
Zr52       Zr  0.25141352  0.41904511  0.50020536     2.11100
O53         O  0.29555162  0.45049211  0.45890058    -2.47200
O54         O  0.29999797  0.02560096  0.45986619    -0.79200
O55         O  0.21375547  0.45511743  0.45461715    -0.71400
O56         O  0.29757296  0.03121560  0.54631295    -2.32400
O57         O  0.21803286  0.03056916  0.45474126    -2.28600
O58         O  0.29397576  0.45612368  0.54514832    -0.73200
H59         H  0.19485879  0.44713167  0.55730948     0.78800
H60         H  0.31395773  0.04744429  0.56412168     0.79900
H61         H  0.31045311  0.43233429  0.44261486     0.82100
H62         H  0.20393083  0.04667067  0.43681834     0.79700
H63         H  0.32432778  0.01107008  0.62860448     0.42800
H64         H  0.37731190  0.46371041  0.57452212     0.41700
H65         H  0.37426590  0.97977684  0.42969428     0.41400
H66         H  0.32278988  0.45642906  0.37207568     0.39400
H67         H  0.21932773  0.49440835  0.33768947     0.42500
H68         H  0.13497946  0.02432087  0.42402197     0.37300
H69         H  0.13420620  0.99569436  0.56962326     0.43400
H70         H  0.18949959  0.47729108  0.63025853     0.39800
H71         H  0.29579538  0.47370791  0.33889312     0.44700
H72         H  0.10458453  0.50024513  0.44915963     0.43400
H73         H  0.21496558  0.50391626  0.66004219     0.43600
H74         H  0.40787710  0.48398538  0.54905115     0.43900
N75         N  0.00167700  0.30195115  0.50314156    -0.36200
N76         N  0.06540769  0.24756912  0.50094453    -0.56800
N77         N  0.01040324  0.18538901  0.50392865    -0.36200
N78         N  0.44723171  0.23913767  0.50366782    -0.56800
C79         C  0.03126285  0.32488769  0.49428245     0.27300
C80         C  0.46926260  0.31965165  0.49453514     0.27300
C81         C  0.04321264  0.16557250  0.49658114     0.27300
C82         C  0.48055680  0.16099312  0.49827967     0.27300
C83         C  0.08577989  0.28027690  0.50624407     0.36000
C84         C  0.09042126  0.21895300  0.50725883     0.34200
C85         C  0.42282308  0.26878609  0.50961914     0.36000
C86         C  0.42729981  0.20745837  0.51117779     0.36000
C87         C  0.01660135  0.35878846  0.48120878    -0.21500
C88         C  0.47792568  0.35439795  0.47933811    -0.21500
C89         C  0.03386635  0.12812904  0.48491732    -0.21500
C90         C  0.49414685  0.12538489  0.48533677    -0.21500
C91         C  0.12400835  0.27234955  0.51566472    -0.22600
C92         C  0.12693689  0.23354664  0.51629997    -0.22600
C93         C  0.38713875  0.25585246  0.52072511    -0.22600
C94         C  0.38996838  0.21705563  0.52175236    -0.22600
C95         C  0.07106065  0.31690443  0.49974118    -0.17900
C96         C  0.43148177  0.30691864  0.50218240    -0.17900
C97         C  0.44126898  0.16984997  0.50523755    -0.17900
C98         C  0.08134392  0.17980314  0.50220064    -0.17900
H99         H  0.03272767  0.38304020  0.47225860     0.15000
H100        H  0.45781214  0.37581214  0.46990797     0.15000
H101        H  0.05351638  0.10505938  0.47745968     0.15000
H102        H  0.47731961  0.09999846  0.47761935     0.15000
H103        H  0.14745955  0.29239501  0.52108123     0.13300
H104        H  0.15305668  0.21786083  0.52228498     0.13300
H105        H  0.36156221  0.27255383  0.52686184     0.13300
H106        H  0.36696114  0.19804235  0.52884225     0.13300
H107        H  0.00411356  0.27676720  0.51779628     0.26500
H108        H  0.00881307  0.21272873  0.51739884     0.26500
C109        C  0.26802519  0.19174347  0.27516343     0.86900
C110        C  0.23471942  0.19294987  0.24341706    -0.53400
C111        C  0.23339585  0.22569259  0.22337054     0.09800
C112        C  0.26498599  0.25453167  0.23689106     0.20700
C113        C  0.30423479  0.19903474  0.25077461    -0.54100
C114        C  0.30265479  0.23186422  0.23044099     0.09900
C115        C  0.26378744  0.22744959  0.30315386    -0.53600
C116        C  0.26083019  0.26018346  0.28375968     0.10400
H117        H  0.21403526  0.17005787  0.23737841     0.15000
H118        H  0.26318734  0.28126916  0.22073944     0.00700
H119        H  0.32780368  0.17915546  0.24706974     0.15300
H120        H  0.26257218  0.22661015  0.33628968     0.15100
N121        N  0.26026096  0.43633148  0.00261551    -0.36200
N122        N  0.31902118  0.49519129  0.00317087    -0.56800
N123        N  0.25779544  0.05306043  0.00285114    -0.36200
N124        N  0.19977266  0.49369193  0.99944222    -0.56800
C125        C  0.29194996  0.41571086  0.01143865     0.27300
C126        C  0.22912082  0.41499258  0.01001043     0.27300
C127        C  0.28900076  0.07570439  0.01013215     0.27300
C128        C  0.22617867  0.07498634  0.00877246     0.27300
C129        C  0.34212873  0.46429000  0.99950491     0.36000
C130        C  0.34064879  0.02637645  0.00248849     0.36000
C131        C  0.17765065  0.46202742  0.99452802     0.36000
C132        C  0.17553910  0.02434191  0.00038520     0.36000
C133        C  0.28077882  0.38074811  0.02445602    -0.21500
C134        C  0.24120753  0.38032316  0.02363223    -0.21500
C135        C  0.27703161  0.11257545  0.02021431    -0.21500
C136        C  0.23750083  0.11214368  0.01928293    -0.21500
C137        C  0.37940829  0.47549705  0.99198281    -0.22600
C138        C  0.37822819  0.01504793  0.99535708    -0.22600
C139        C  0.14017440  0.47194420  0.98413089    -0.22600
C140        C  0.13773372  0.01208335  0.99483398    -0.22600
C141        C  0.33055882  0.42651303  0.00559763    -0.17900
C142        C  0.19023696  0.42469837  0.00191505    -0.17900
C143        C  0.18737130  0.06295062  0.00367002    -0.17900
C144        C  0.32792894  0.06468345  0.00576312    -0.17900
H145        H  0.29919813  0.35767686  0.03316470     0.15000
H146        H  0.22338752  0.35683515  0.03153489     0.15000
H147        H  0.29490989  0.13735890  0.02737555     0.15000
H148        H  0.21920877  0.13652311  0.02569440     0.15000
H149        H  0.40451886  0.45754201  0.98842775     0.13300
H150        H  0.40266871  0.03300084  0.99020618     0.13300
H151        H  0.11566017  0.45315352  0.97896613     0.13300
H152        H  0.11226614  0.02944493  0.99163588     0.13300
H153        H  0.25988865  0.46145392  0.98775104     0.26500
H154        H  0.25811200  0.02535800  0.99033751     0.26500
O155        O  0.06779047  0.24060239  0.88561853    -0.74900
O156        O  0.11600952  0.23949500  0.93424352    -0.53800
C157        C  0.10354631  0.23953876  0.89674942     0.78800
O158        O  0.44669379  0.35257828  0.00614053    -0.59500
O159        O  0.40021817  0.30652960  0.00498007    -0.52600
C160        C  0.41146760  0.34147958  0.00614775     0.70800
O161        O  0.07495071  0.35118728  0.00126582    -0.74100
O162        O  0.12006241  0.30388243  0.00017526    -0.54700
C163        C  0.10983097  0.33912448  0.00070429     0.76800
O164        O  0.43875177  0.24395849  0.88916557    -0.59200
O165        O  0.39490050  0.24276890  0.93987259    -0.52400
C166        C  0.40412251  0.24395145  0.90204242     0.73400
Zr167      Zr  0.00509111  0.24084406  0.91675071     2.54700
O168        O  0.00341030  0.28662872  0.86399600    -0.79800
O169        O  0.49878356  0.18408189  0.86846381    -0.93200
Zr170      Zr  0.01053164  0.32440662  0.00239200     2.64700
O171        O  0.00888477  0.36461887  0.94441698    -0.98200
O172        O  0.01482144  0.37681560  0.05433623    -0.80200
O173        O  0.04570311  0.28249356  0.95788486    -0.83600
O174        O  0.46956342  0.28287709  0.95948674    -2.18300
O175        O  0.44320953  0.13784109  0.00211017    -0.67000
O176        O  0.39809949  0.18511752  0.00363802    -0.51500
C177        C  0.40835606  0.14990008  0.00326047     0.71800
O178        O  0.07953116  0.24543585  0.11396318    -0.59900
O179        O  0.12288995  0.24357945  0.06273421    -0.51900
C180        C  0.11410011  0.24375756  0.10075637     0.73600
O181        O  0.45049876  0.24950020  0.11709883    -0.71300
O182        O  0.40199703  0.24917532  0.06857182    -0.50000
C183        C  0.41466851  0.24955280  0.10598005     0.75000
O184        O  0.07129574  0.13698004  0.00192720    -0.66600
O185        O  0.11786123  0.18263965  0.99994437    -0.53800
C186        C  0.10653548  0.14789601  0.00124362     0.73400
Zr187      Zr  0.00774767  0.16585768  0.00122836     2.77500
O188        O  0.01074812  0.12181435  0.05565552    -0.97400
O189        O  0.00491182  0.11649630  0.94581299    -0.78200
Zr190      Zr  0.01375649  0.24956074  0.08722443     2.70100
O191        O  0.01481238  0.20452916  0.14068793    -0.79400
O192        O  0.02012461  0.30334465  0.13730052    -0.98500
Zr193      Zr  0.08433649  0.24374727  0.99977432     2.21500
Zr194      Zr  0.43369083  0.24523300  0.00320202     2.11100
O195        O  0.47292259  0.20664284  0.04499311    -2.47200
O196        O  0.04827198  0.20656777  0.04360333    -0.79200
O197        O  0.46785895  0.20215372  0.95824603    -0.71400
O198        O  0.04989393  0.28695892  0.04448216    -2.32400
O199        O  0.04419118  0.20194034  0.95719948    -2.28600
O200        O  0.47387060  0.28706656  0.04585016    -0.73200
H201        H  0.45260581  0.29814534  0.94341137     0.78800
H202        H  0.06737295  0.30298413  0.06119756     0.79900
H203        H  0.45729432  0.19205064  0.06235793     0.82100
H204        H  0.05948562  0.18512311  0.93975764     0.79700
H205        H  0.02569257  0.36533547  0.07897066     0.42800
H206        H  0.49430904  0.31669829  0.13246996     0.41700
H207        H  0.00693911  0.18007125  0.12642698     0.41400
H208        H  0.49024946  0.12815417  0.07293113     0.39400
H209        H  0.49039169  0.12629715  0.92242070     0.42500
H210        H  0.02542458  0.17249838  0.87103965     0.37300
H211        H  0.98814435  0.30816104  0.87574603     0.43400
H212        H  0.48289772  0.35831065  0.92986372     0.39800
H213        H  0.00760567  0.09641595  0.04128445     0.44700
H214        H  0.00301278  0.19736456  0.84033587     0.43400
H215        H  0.01211963  0.39075877  0.95689792     0.43600
H216        H  0.01187117  0.29334566  0.16331342     0.43900
C217        C  0.35633788  0.09505046  0.00508253    -0.12900
C218        C  0.37900663  0.12106499  0.00431937    -0.14500
C219        C  0.16190718  0.39416145  0.00143024    -0.12900
C220        C  0.13925122  0.36802761  0.00099681    -0.14500
C221        C  0.38268338  0.37099126  0.00687545    -0.12900
C222        C  0.35969378  0.39679589  0.00655075    -0.14500
C223        C  0.13520221  0.11837183  0.00200684    -0.12900
C224        C  0.15812870  0.09255960  0.00279117    -0.14500
C225        C  0.32077990  0.25500244  0.16258791    -0.13000
C226        C  0.33194043  0.24081785  0.20031339     0.09200
C227        C  0.37081133  0.23196150  0.20758180    -0.13000
C228        C  0.39774681  0.23600077  0.17730655    -0.13000
C229        C  0.38635467  0.24857367  0.13885256     0.09200
C230        C  0.34765484  0.25844992  0.13192451    -0.13000
H231        H  0.29105439  0.26208498  0.15611273     0.13200
H232        H  0.38031645  0.22132626  0.23652446     0.13200
H233        H  0.42733164  0.22806772  0.18363678     0.13200
H234        H  0.33807231  0.26841041  0.10268516     0.13200
C235        C  0.13796213  0.24775676  0.17382376    -0.13000
C236        C  0.14561070  0.24130428  0.13186816     0.09200
C237        C  0.18310403  0.23098614  0.12035063    -0.13000
C238        C  0.21200076  0.22643311  0.15022165    -0.13000
C239        C  0.20387362  0.23249458  0.19183932     0.09200
C240        C  0.16690302  0.24338187  0.20352702    -0.13000
H241        H  0.10947810  0.25583381  0.18381020     0.13200
H242        H  0.18986072  0.22547063  0.08838929     0.13200
H243        H  0.24035522  0.21722595  0.14092031     0.13200
H244        H  0.16037826  0.24800375  0.23567582     0.13200
C245        C  0.26890639  0.36106949  0.32866341    -0.13000
C246        C  0.24843122  0.35846903  0.36504384     0.09200
C247        C  0.22738606  0.32557988  0.37085076    -0.13000
C248        C  0.22865352  0.29494434  0.34202900    -0.13000
C249        C  0.25220123  0.29602844  0.30764198     0.09200
C250        C  0.27098946  0.32987430  0.30019320    -0.13000
H251        H  0.28498270  0.38651502  0.32331178     0.13200
H252        H  0.21047749  0.32333617  0.39796867     0.13200
H253        H  0.21255303  0.26959091  0.34769486     0.13200
H254        H  0.28907118  0.33145314  0.27388219     0.13200
C255        C  0.29878894  0.11089099  0.34109612    -0.13000
C256        C  0.26644200  0.10912696  0.36550131     0.09200
C257        C  0.23331657  0.12951337  0.35619693    -0.13000
C258        C  0.23319498  0.15320644  0.32386491    -0.13000
C259        C  0.26665829  0.15786288  0.30116502     0.09200
C260        C  0.29918239  0.13549225  0.30934676    -0.13000
H261        H  0.32409325  0.09405797  0.34745389     0.13200
H262        H  0.20765471  0.12714607  0.37401233     0.13200
H263        H  0.20771104  0.17003882  0.31829348     0.13200
H264        H  0.32552429  0.13782803  0.29298902     0.13200
C265        C  0.37448704  0.35813589  0.50215764    -0.12900
C266        C  0.39987456  0.33440381  0.50182639    -0.14500
C267        C  0.13806605  0.12865192  0.50066681    -0.12900
C268        C  0.11297541  0.15254530  0.50155591    -0.14500
C269        C  0.09871235  0.34781299  0.49753875    -0.12900
C270        C  0.12315757  0.37219794  0.49629394    -0.14500
C271        C  0.38834048  0.11469062  0.50435327    -0.12900
C272        C  0.41322262  0.13889358  0.50477944    -0.14500
C273        C  0.30999458  0.23012396  0.84173354    -0.13000
C274        C  0.31549449  0.25373209  0.80916298     0.09200
C275        C  0.35134592  0.27169229  0.80639368    -0.13000
C276        C  0.37995798  0.26803130  0.83651133    -0.13000
C277        C  0.37340419  0.24665002  0.87043863     0.09200
C278        C  0.33832473  0.22739177  0.87270238    -0.13000
H279        H  0.28385900  0.21401146  0.84387337     0.13200
H280        H  0.35753681  0.28856039  0.78082557     0.13200
H281        H  0.40710827  0.28261521  0.83363811     0.13200
H282        H  0.33312469  0.20976733  0.89796470     0.13200
C283        C  0.14666918  0.24424722  0.79182406    -0.13000
C284        C  0.18617977  0.24396981  0.80157373     0.09200
C285        C  0.19837870  0.24046196  0.84234886    -0.13000
C286        C  0.17167134  0.23776390  0.87315786    -0.13000
C287        C  0.13203310  0.23898759  0.86378037     0.09200
C288        C  0.11982018  0.24155820  0.82257560    -0.13000
H289        H  0.13663706  0.24752524  0.76058595     0.13200
H290        H  0.22846003  0.24233817  0.85094501     0.13200
H291        H  0.18214358  0.23610677  0.90448897     0.13200
H292        H  0.08949960  0.24260690  0.81414511     0.13200
C293        C  0.26950823  0.35782431  0.70200085    -0.13000
C294        C  0.24333370  0.32734571  0.69976431     0.09200
C295        C  0.21567532  0.32479373  0.66721913    -0.13000
C296        C  0.21753405  0.34880132  0.63501525    -0.13000
C297        C  0.24581801  0.37702066  0.63592485     0.09200
C298        C  0.27055386  0.38245996  0.67040972    -0.13000
H299        H  0.29038907  0.36225946  0.72677921     0.13200
H300        H  0.19453760  0.30212140  0.66513102     0.13200
H301        H  0.19715236  0.34521011  0.60939776     0.13200
H302        H  0.29177572  0.40505665  0.67219681     0.13200
C303        C  0.28883071  0.18900998  0.66060560    -0.13000
C304        C  0.26399408  0.18949299  0.69397005     0.09200
C305        C  0.24070862  0.15794231  0.69925022    -0.13000
C306        C  0.24030423  0.12740835  0.66989134    -0.13000
C307        C  0.26279404  0.12845871  0.63478873     0.09200
C308        C  0.28781700  0.15899979  0.63091286    -0.13000
H309        H  0.30762221  0.21289016  0.65639914     0.13200
H310        H  0.22115941  0.15794956  0.72450889     0.13200
H311        H  0.22107893  0.10377170  0.67361142     0.13200
H312        H  0.30618941  0.15986256  0.60472072     0.13200
C313        C  0.24794155  0.79279562  0.72523209     0.86900
C314        C  0.21183437  0.78378503  0.74861257    -0.53400
C315        C  0.21499580  0.75203189  0.77037379     0.09800
C316        C  0.25383819  0.73112625  0.76539906     0.20700
C317        C  0.28070440  0.79409200  0.75806778    -0.54100
C318        C  0.28437026  0.76160194  0.77887770     0.09900
C319        C  0.25618252  0.75698368  0.69851699    -0.53600
C320        C  0.25884483  0.72467120  0.71871908     0.10400
H321        H  0.18695593  0.80243601  0.75005732     0.15000
H322        H  0.25580869  0.70451303  0.78165962     0.00700
H323        H  0.29939311  0.81824498  0.76474206     0.15300
H324        H  0.25875039  0.75707977  0.66545780     0.15100
O325        O  0.15156585  0.56288738  0.49746103    -0.74900
O326        O  0.20168055  0.60506224  0.49889601    -0.53800
C327        C  0.16545304  0.59679007  0.49828402     0.78800
O328        O  0.24932872  0.93930512  0.61533511    -0.59500
O329        O  0.24565947  0.89079097  0.56577904    -0.52600
C330        C  0.24649884  0.90411702  0.60339909     0.70800
O331        O  0.25517307  0.56247102  0.61530254    -0.74100
O332        O  0.26299949  0.60399010  0.56530497    -0.54700
C333        C  0.25961346  0.59597855  0.60305794     0.76800
O334        O  0.14273729  0.93593576  0.49380675    -0.59200
O335        O  0.18818507  0.88917535  0.49737156    -0.52400
C336        C  0.15312947  0.90089045  0.49504857     0.73400
Zr337      Zr  0.17430959  0.99838492  0.49501801     2.54700
O338        O  0.12262409  0.00424726  0.54379076    -0.79800
O339        O  0.13134744  0.99902073  0.43487977    -0.93200
Zr340      Zr  0.25253123  0.99971244  0.58533439     2.64700
O341        O  0.20199034  0.50258632  0.63265055    -0.98200
O342        O  0.30107126  0.00034621  0.64040325    -0.80200
O343        O  0.21630731  0.53489730  0.54072311    -0.83600
O344        O  0.21058118  0.96229694  0.54115983    -2.18300
O345        O  0.25294549  0.92434732  0.38562726    -0.67000
O346        O  0.24809828  0.88280778  0.43600492    -0.51500
C347        C  0.24980894  0.89084295  0.39815618     0.71800
O348        O  0.36875754  0.55044373  0.50422183    -0.59900
O349        O  0.32333388  0.59731508  0.50130090    -0.51900
C350        C  0.35841613  0.58549458  0.50304960     0.73600
O351        O  0.35952896  0.92341173  0.50372430    -0.71300
O352        O  0.30922774  0.88145577  0.50231449    -0.50000
C353        C  0.34550810  0.88953656  0.50269505     0.75000
O354        O  0.26607803  0.54707828  0.38470435    -0.66600
O355        O  0.26186079  0.59563543  0.43413031    -0.53800
C356        C  0.26491605  0.58229235  0.39672290     0.73400
Zr357      Zr  0.25769103  0.98824845  0.41583319     2.77500
O358        O  0.30737061  0.97881256  0.36496673    -0.97400
O359        O  0.20636745  0.99275269  0.36416848    -0.78200
Zr360      Zr  0.33633463  0.98917637  0.50573295     2.70100
O361        O  0.38777140  0.98295231  0.45673343    -0.79400
O362        O  0.38169177  0.98956135  0.56385402    -0.98500
Zr363      Zr  0.26037228  0.56648123  0.49979961     2.21500
Zr364      Zr  0.25076457  0.92048331  0.50093734     2.11100
O365        O  0.29522798  0.95194249  0.46019804    -2.47200
O366        O  0.29992137  0.52485592  0.45880099    -0.79200
O367        O  0.21318103  0.95605784  0.45486214    -0.71400
O368        O  0.29861789  0.53024248  0.54488782    -2.32400
O369        O  0.21834210  0.52935460  0.45428457    -2.28600
O370        O  0.29272617  0.95735421  0.54675527    -0.73200
H371        H  0.19327399  0.94818352  0.55725109     0.78800
H372        H  0.31505982  0.54644642  0.56266558     0.79900
H373        H  0.31021311  0.93382880  0.44395853     0.82100
H374        H  0.20398337  0.54531915  0.43643158     0.79700
H375        H  0.32252606  0.48139225  0.63055868     0.42800
H376        H  0.37356427  0.96807145  0.57971816     0.41700
H377        H  0.37546022  0.49839388  0.42925675     0.41400
H378        H  0.32230242  0.95655822  0.37338674     0.39400
H379        H  0.18717882  0.97354518  0.37098917     0.42500
H380        H  0.13422748  0.52332709  0.42535380     0.37300
H381        H  0.13603709  0.49217145  0.57027191     0.43400
H382        H  0.18458888  0.98337566  0.62854462     0.39800
H383        H  0.29338160  0.96962558  0.33946770     0.44700
H384        H  0.10515882  0.99995798  0.44612459     0.43400
H385        H  0.21339246  0.00281709  0.66103780     0.43600
H386        H  0.40633605  0.98114823  0.55175809     0.43900
N387        N  0.00195376  0.80141941  0.49315624    -0.36200
N388        N  0.06533289  0.74687898  0.49673707    -0.56800
N389        N  0.00979072  0.68469747  0.49604893    -0.36200
N390        N  0.44626457  0.73964267  0.50392159    -0.56800
C391        C  0.03218547  0.82538221  0.50052585     0.27300
C392        C  0.46839085  0.82072737  0.49579359     0.27300
C393        C  0.04286440  0.66594660  0.50455405     0.27300
C394        C  0.47969310  0.66092412  0.49831176     0.27300
C395        C  0.08540802  0.77851079  0.48918482     0.36000
C396        C  0.08959158  0.71707778  0.49065824     0.34200
C397        C  0.42151289  0.76917440  0.50869899     0.36000
C398        C  0.42595909  0.70768467  0.50951039     0.36000
C399        C  0.01856194  0.86127490  0.51239800    -0.21500
C400        C  0.47708836  0.85611232  0.48214170    -0.21500
C401        C  0.03384700  0.63073792  0.51847244    -0.21500
C402        C  0.49328471  0.62472982  0.48775558    -0.21500
C403        C  0.12267314  0.76873461  0.47861452    -0.22600
C404        C  0.12530247  0.72990298  0.47952049    -0.22600
C405        C  0.38520799  0.75586473  0.51720332    -0.22600
C406        C  0.38800499  0.71701978  0.51770238    -0.22600
C407        C  0.07146077  0.81624574  0.49435363    -0.17900
C408        C  0.43042000  0.80756235  0.50232769    -0.17900
C409        C  0.44031544  0.67005376  0.50445710    -0.17900
C410        C  0.08076995  0.67882274  0.49766899    -0.17900
H411        H  0.03537189  0.88672763  0.51985515     0.15000
H412        H  0.45698730  0.87789263  0.47363147     0.15000
H413        H  0.05374393  0.60889461  0.52729522     0.15000
H414        H  0.47651236  0.59901301  0.48191162     0.15000
H415        H  0.14569541  0.78764140  0.47131534     0.13300
H416        H  0.15072686  0.71307066  0.47306846     0.13300
H417        H  0.35920754  0.77232835  0.52176738     0.13300
H418        H  0.36455553  0.69780713  0.52278258     0.13300
H419        H  0.00335686  0.77411394  0.47950652     0.26500
H420        H  0.00771023  0.70962577  0.48086959     0.26500
C421        C  0.26736704  0.69295494  0.27495863     0.86900
C422        C  0.23360150  0.69503429  0.24383969    -0.53400
C423        C  0.23232722  0.72806993  0.22427771     0.09800
C424        C  0.26442007  0.75641260  0.23771190     0.20700
C425        C  0.30329717  0.70027704  0.25003806    -0.54100
C426        C  0.30180817  0.73351600  0.23029718     0.09900
C427        C  0.26404340  0.72836456  0.30353567    -0.53600
C428        C  0.26104946  0.76142627  0.28473590     0.10400
H429        H  0.21274602  0.67232626  0.23761385     0.15000
H430        H  0.26265427  0.78339661  0.22200709     0.00700
H431        H  0.32676444  0.68032812  0.24594505     0.15300
H432        H  0.26347954  0.72706392  0.33665788     0.15100
N433        N  0.25975755  0.93626740  0.00418295    -0.36200
N434        N  0.31854027  0.99556278  0.00803197    -0.56800
N435        N  0.25849274  0.55238308  0.99749742    -0.36200
N436        N  0.19907545  0.99404383  0.00414185    -0.56800
C437        C  0.29141849  0.91516605  0.01184874     0.27300
C438        C  0.22860065  0.91423578  0.00937968     0.27300
C439        C  0.28960514  0.57474624  0.00676771     0.27300
C440        C  0.22677257  0.57395224  0.00451487     0.27300
C441        C  0.34171629  0.96471678  0.00378051     0.36000
C442        C  0.34123821  0.52590645  0.99762269     0.36000
C443        C  0.17658629  0.96258700  0.00013591     0.36000
C444        C  0.17671542  0.52360305  0.99193955     0.36000
C445        C  0.28018112  0.87912867  0.02155920    -0.21500
C446        C  0.24066032  0.87851570  0.01991621    -0.21500
C447        C  0.27748107  0.61095482  0.01951658    -0.21500
C448        C  0.23792279  0.61045667  0.01809548    -0.21500
C449        C  0.37891422  0.97608689  0.99624113    -0.22600
C450        C  0.37884988  0.51448024  0.99082262    -0.22600
C451        C  0.13840304  0.97306028  0.99459539    -0.22600
C452        C  0.13959140  0.51089024  0.98247609    -0.22600
C453        C  0.33014820  0.92659631  0.00802098    -0.17900
C454        C  0.18959656  0.92469393  0.00344089    -0.17900
C455        C  0.18810527  0.56228128  0.99695538    -0.17900
C456        C  0.32857357  0.56417500  0.00172437    -0.17900
H457        H  0.29852455  0.85551952  0.02877589     0.15000
H458        H  0.22285441  0.85436804  0.02577301     0.15000
H459        H  0.29529359  0.63534972  0.02870601     0.15000
H460        H  0.21948143  0.63438985  0.02600229     0.15000
H461        H  0.40394992  0.95818079  0.99181642     0.13300
H462        H  0.40345322  0.53240361  0.98623583     0.13300
H463        H  0.11352723  0.95454503  0.99122274     0.13300
H464        H  0.11455232  0.52794780  0.97586255     0.13300
H465        H  0.25941976  0.96260144  0.99186975     0.26500
H466        H  0.25892329  0.52543444  0.98278537     0.26500
O467        O  0.06806275  0.74166376  0.88550403    -0.74900
O468        O  0.11616601  0.74075340  0.93423152    -0.53800
C469        C  0.10378565  0.74075570  0.89672527     0.78800
O470        O  0.44657958  0.85275880  0.00661968    -0.59500
O471        O  0.40016781  0.80666081  0.00563465    -0.52600
C472        C  0.41135323  0.84162567  0.00685049     0.70800
O473        O  0.07455425  0.85111402  0.00179565    -0.74100
O474        O  0.11974741  0.80386766  0.00019164    -0.54700
C475        C  0.10942426  0.83907423  0.00092418     0.76800
O476        O  0.43934696  0.74500089  0.88886747    -0.59200
O477        O  0.39568864  0.74434926  0.93986965    -0.52400
C478        C  0.40481127  0.74561461  0.90207587     0.73400
Zr479      Zr  0.00535233  0.74161447  0.91636948     2.54700
O480        O  0.00381844  0.78800655  0.86427668    -0.79800
O481        O  0.50130527  0.68661539  0.86594607    -0.93200
Zr482      Zr  0.01019570  0.82438324  0.00327332     2.64700
O483        O  0.01075068  0.87026941  0.95057383    -0.98200
O484        O  0.01210377  0.87134341  0.06109592    -0.80200
O485        O  0.04550815  0.78298602  0.95825140    -0.83600
O486        O  0.47022093  0.78350732  0.95979922    -2.18300
O487        O  0.44355011  0.63819477  0.00057842    -0.67000
O488        O  0.39836579  0.68536147  0.00273772    -0.51500
C489        C  0.40866055  0.65012064  0.00174269     0.71800
O490        O  0.07917285  0.74560462  0.11307294    -0.59900
O491        O  0.12293464  0.74389276  0.06222366    -0.51900
C492        C  0.11389089  0.74431486  0.10016764     0.73600
O493        O  0.45005945  0.74955537  0.11688534    -0.71300
O494        O  0.40168802  0.74976700  0.06827827    -0.50000
C495        C  0.41422416  0.75010044  0.10574812     0.75000
O496        O  0.07155507  0.63654475  0.99886590    -0.66600
O497        O  0.11795646  0.68242465  0.99745167    -0.53800
C498        C  0.10680192  0.64750315  0.99774851     0.73400
Zr499      Zr  0.00786970  0.66569272  0.00002818     2.77500
O500        O  0.00974872  0.62301315  0.05578887    -0.97400
O501        O  0.00530636  0.61566277  0.94530429    -0.78200
Zr502      Zr  0.01300921  0.74866810  0.08671419     2.70100
O503        O  0.01266537  0.70291018  0.13943804    -0.79400
O504        O  0.01828011  0.80202330  0.13751777    -0.98500
Zr505      Zr  0.08420274  0.74370327  0.99951995     2.21500
Zr506      Zr  0.43400652  0.74560675  0.00313374     2.11100
O507        O  0.47305925  0.70683300  0.04479618    -2.47200
O508        O  0.04818619  0.70605740  0.04307005    -0.79200
O509        O  0.46829090  0.70300471  0.95769185    -0.71400
O510        O  0.04953736  0.78643338  0.04466674    -2.32400
O511        O  0.04421822  0.70231089  0.95644375    -2.28600
O512        O  0.47379786  0.78747260  0.04598931    -0.73200
H513        H  0.45331740  0.79890409  0.94381007     0.78800
H514        H  0.06690603  0.80238319  0.06160892     0.79900
H515        H  0.45736561  0.69209935  0.06196254     0.82100
H516        H  0.05951028  0.68574922  0.93871511     0.79700
H517        H  0.99271515  0.86241558  0.07998195     0.42800
H518        H  0.49235993  0.81770055  0.13036502     0.41700
H519        H  0.03199039  0.68364309  0.13070044     0.41400
H520        H  0.48719300  0.62524005  0.06893284     0.39400
H521        H  0.48380989  0.62611171  0.92422502     0.42500
H522        H  0.00307863  0.69951862  0.83910706     0.37300
H523        H  0.00238362  0.81286768  0.87996723     0.43400
H524        H  0.48341463  0.86027990  0.93140992     0.39800
H525        H  0.00676996  0.59732869  0.04205278     0.44700
H526        H  0.97738563  0.67687860  0.86784275     0.43400
H527        H  0.01132202  0.89535190  0.96596382     0.43600
H528        H  0.02285448  0.79013497  0.16385909     0.43900
C529        C  0.35687322  0.59478079  0.00191469    -0.12900
C530        C  0.37936889  0.62106148  0.00195772    -0.14500
C531        C  0.16126619  0.89418039  0.00198175    -0.12900
C532        C  0.13872528  0.86798497  0.00116262    -0.14500
C533        C  0.38249996  0.87112897  0.00808594    -0.12900
C534        C  0.35944618  0.89693140  0.00834319    -0.14500
C535        C  0.13566961  0.61785241  0.99669107    -0.12900
C536        C  0.15874656  0.59198241  0.99630289    -0.14500
C537        C  0.32039657  0.75782648  0.16288789    -0.13000
C538        C  0.33126642  0.74309063  0.20045830     0.09200
C539        C  0.37006521  0.73394630  0.20769419    -0.13000
C540        C  0.39703806  0.73751762  0.17733160    -0.13000
C541        C  0.38581485  0.74991209  0.13874654     0.09200
C542        C  0.34731009  0.76071125  0.13205073    -0.13000
H543        H  0.29081463  0.76554727  0.15657640     0.13200
H544        H  0.37943579  0.72316913  0.23661066     0.13200
H545        H  0.42649976  0.72917939  0.18365796     0.13200
H546        H  0.33789115  0.77086196  0.10284336     0.13200
C547        C  0.13697686  0.74888386  0.17346146    -0.13000
C548        C  0.14523069  0.74273682  0.13162402     0.09200
C549        C  0.18315083  0.73356127  0.12062926    -0.13000
C550        C  0.21180971  0.72958425  0.15091320    -0.13000
C551        C  0.20305452  0.73507115  0.19243791     0.09200
C552        C  0.16565986  0.74500706  0.20358149    -0.13000
H553        H  0.10817003  0.75617975  0.18304923     0.13200
H554        H  0.19043427  0.72838150  0.08876984     0.13200
H555        H  0.24045972  0.72102706  0.14198888     0.13200
H556        H  0.15857438  0.74916075  0.23561781     0.13200
C557        C  0.26842885  0.86244252  0.32959818    -0.13000
C558        C  0.24875210  0.85951758  0.36642241     0.09200
C559        C  0.22877362  0.82618628  0.37296674    -0.13000
C560        C  0.23022932  0.79548343  0.34432549    -0.13000
C561        C  0.25286015  0.79699922  0.30928047     0.09200
C562        C  0.27066706  0.83120249  0.30123396    -0.13000
H563        H  0.28369647  0.88823440  0.32373302     0.13200
H564        H  0.21247838  0.82369003  0.40047688     0.13200
H565        H  0.21476570  0.76989002  0.35049415     0.13200
H566        H  0.28800324  0.83312689  0.27440642     0.13200
C567        C  0.29757362  0.61022780  0.33907103    -0.13000
C568        C  0.26571686  0.60882499  0.36434724     0.09200
C569        C  0.23299045  0.63024259  0.35609553    -0.13000
C570        C  0.23278248  0.65437477  0.32406320    -0.13000
C571        C  0.26584870  0.65865317  0.30059856     0.09200
C572        C  0.29793058  0.63533247  0.30764748    -0.13000
H573        H  0.32260151  0.59273856  0.34452916     0.13200
H574        H  0.20766288  0.62834066  0.37450938     0.13200
H575        H  0.20758892  0.67184930  0.31935171     0.13200
H576        H  0.32391545  0.63727405  0.29057482     0.13200
C577        C  0.37316833  0.85862949  0.50175161    -0.12900
C578        C  0.39864731  0.83494880  0.50151393    -0.14500
C579        C  0.13771457  0.62755150  0.49843644    -0.12900
C580        C  0.11235531  0.65130408  0.49828937    -0.14500
C581        C  0.09923771  0.84732283  0.49412166    -0.12900
C582        C  0.12319347  0.87234266  0.49420557    -0.14500
C583        C  0.38848134  0.61393478  0.50379643    -0.12900
C584        C  0.41256974  0.63887175  0.50423729    -0.14500
C585        C  0.31100010  0.73160976  0.84197137    -0.13000
C586        C  0.31547848  0.75659297  0.81046250     0.09200
C587        C  0.35026899  0.77693318  0.80922415    -0.13000
C588        C  0.37911007  0.77317360  0.83909726    -0.13000
C589        C  0.37383527  0.74928790  0.87116402     0.09200
C590        C  0.33955777  0.72862824  0.87256014    -0.13000
H591        H  0.28563616  0.71423931  0.84341094     0.13200
H592        H  0.35582090  0.79530810  0.78477688     0.13200
H593        H  0.40554425  0.78923120  0.83732146     0.13200
H594        H  0.33529024  0.70950872  0.89671869     0.13200
C595        C  0.14698654  0.74488447  0.79183331    -0.13000
C596        C  0.18650675  0.74369351  0.80142549     0.09200
C597        C  0.19864057  0.73957139  0.84215283    -0.13000
C598        C  0.17188229  0.73760940  0.87305931    -0.13000
C599        C  0.13229437  0.73998897  0.86380020     0.09200
C600        C  0.12012135  0.74288076  0.82264894    -0.13000
H601        H  0.13696212  0.74840312  0.76064343     0.13200
H602        H  0.22877804  0.74032222  0.85065444     0.13200
H603        H  0.18229981  0.73545341  0.90434384     0.13200
H604        H  0.08983210  0.74466850  0.81428769     0.13200
C605        C  0.26647787  0.85883701  0.70282427    -0.13000
C606        C  0.24318486  0.82614557  0.69824705     0.09200
C607        C  0.21774234  0.82189377  0.66384276    -0.13000
C608        C  0.21922148  0.84673880  0.63241435    -0.13000
C609        C  0.24444163  0.87766828  0.63600778     0.09200
C610        C  0.26687249  0.88440461  0.67204511    -0.13000
H611        H  0.28520839  0.86476889  0.72923197     0.13200
H612        H  0.19864642  0.79758220  0.65992593     0.13200
H613        H  0.20077629  0.84179595  0.60536196     0.13200
H614        H  0.28579928  0.90886487  0.67578132     0.13200
C615        C  0.28950503  0.68675993  0.66189161    -0.13000
C616        C  0.26440408  0.68806015  0.69504555     0.09200
C617        C  0.23968697  0.65731242  0.69959701    -0.13000
C618        C  0.23855759  0.62681451  0.66994913    -0.13000
C619        C  0.26164910  0.62715872  0.63517241     0.09200
C620        C  0.28769510  0.65695687  0.63191976    -0.13000
H621        H  0.30919265  0.71000058  0.65801190     0.13200
H622        H  0.21974745  0.65794743  0.72454241     0.13200
H623        H  0.21850647  0.60375681  0.67324232     0.13200
H624        H  0.30648729  0.65731119  0.60602937     0.13200
C625        C  0.74891837  0.29202529  0.72502296     0.86900
C626        C  0.71263887  0.28351941  0.74823549    -0.53400
C627        C  0.71507320  0.25166630  0.76992898     0.09800
C628        C  0.75379014  0.23024909  0.76513460     0.20700
C629        C  0.78159319  0.29284424  0.75803391    -0.54100
C630        C  0.78474887  0.26021725  0.77880185     0.09900
C631        C  0.75679431  0.25618940  0.69830791    -0.53600
C632        C  0.75915702  0.22387282  0.71849813     0.10400
H633        H  0.68808620  0.30258467  0.74942427     0.15000
H634        H  0.75542610  0.20356463  0.78129636     0.00700
H635        H  0.80062093  0.31674366  0.76476732     0.15300
H636        H  0.75959585  0.25635056  0.66527560     0.15100
O637        O  0.65231631  0.06324522  0.49913272    -0.74900
O638        O  0.70237674  0.10552860  0.50170250    -0.53800
C639        C  0.66621358  0.09717213  0.50084360     0.78800
O640        O  0.75395195  0.43709116  0.61369135    -0.59500
O641        O  0.74556874  0.38920843  0.56401263    -0.52600
C642        C  0.74875805  0.40216201  0.60173357     0.70800
O643        O  0.75755443  0.06129661  0.61611726    -0.74100
O644        O  0.76389063  0.10337251  0.56639107    -0.54700
C645        C  0.76146165  0.09493215  0.60405930     0.76800
O646        O  0.64349799  0.43481658  0.49485151    -0.59200
O647        O  0.68889361  0.38779107  0.49550463    -0.52400
C648        C  0.65383917  0.39968914  0.49482275     0.73400
Zr649      Zr  0.67491786  0.49724394  0.49546141     2.54700
O650        O  0.62627374  0.50338438  0.54767780    -0.79800
O651        O  0.63018377  0.49526134  0.43675771    -0.93200
Zr652      Zr  0.75453233  0.49770189  0.58395750     2.64700
O653        O  0.70571507  0.00285230  0.63529636    -0.98200
O654        O  0.80462723  0.50140535  0.63753768    -0.80200
O655        O  0.71708259  0.03438890  0.54166034    -0.83600
O656        O  0.71197067  0.46064260  0.54035472    -2.18300
O657        O  0.75374334  0.42396918  0.38390292    -0.67000
O658        O  0.74772803  0.38214982  0.43389880    -0.51500
C659        C  0.74995050  0.39040010  0.39616056     0.71800
O660        O  0.86874694  0.05098390  0.50163657    -0.59900
O661        O  0.82335485  0.09803309  0.50177905    -0.51900
C662        C  0.85843129  0.08609734  0.50172438     0.73600
O663        O  0.86004778  0.42320006  0.50303428    -0.71300
O664        O  0.80997164  0.38086922  0.50097828    -0.50000
C665        C  0.84614815  0.38927328  0.50211714     0.75000
O666        O  0.76778336  0.04904378  0.38612921    -0.66600
O667        O  0.76177355  0.09699023  0.43588411    -0.53800
C668        C  0.76597750  0.08408269  0.39853234     0.73400
Zr669      Zr  0.75722496  0.48797954  0.41435680     2.77500
O670        O  0.80779592  0.48207814  0.36414814    -0.97400
O671        O  0.70529090  0.49036564  0.36307202    -0.78200
Zr672      Zr  0.83675787  0.48879422  0.50266850     2.70100
O673        O  0.88613855  0.48251277  0.45123229    -0.79400
O674        O  0.88352058  0.49211016  0.55948082    -0.98500
Zr675      Zr  0.76064297  0.06671019  0.50074893     2.21500
Zr676      Zr  0.75141070  0.41927408  0.49913505     2.11100
O677        O  0.79527471  0.45116634  0.45782690    -2.47200
O678        O  0.79986086  0.02592901  0.45857300    -0.79200
O679        O  0.71349837  0.45558810  0.45420990    -0.71400
O680        O  0.79945396  0.03012715  0.54483690    -2.32400
O681        O  0.71783356  0.03051007  0.45517301    -2.28600
O682        O  0.79421915  0.45601458  0.54411207    -0.73200
H683        H  0.69497114  0.44635588  0.55660755     0.78800
H684        H  0.81611138  0.04619061  0.56253070     0.79900
H685        H  0.81024355  0.43316252  0.44141890     0.82100
H686        H  0.70330812  0.04683858  0.43786615     0.79700
H687        H  0.82378623  0.97480630  0.62750258     0.42800
H688        H  0.87959722  0.46839355  0.57349898     0.41700
H689        H  0.87096636  0.98498096  0.42383378     0.41400
H690        H  0.82661228  0.46418315  0.37551202     0.39400
H691        H  0.71831484  0.49549401  0.33741537     0.42500
H692        H  0.63084660  0.02300389  0.42846267     0.37300
H693        H  0.63480146  0.00312842  0.57086598     0.43400
H694        H  0.68753973  0.47598022  0.62613862     0.39800
H695        H  0.79591413  0.46788545  0.33994879     0.44700
H696        H  0.63476453  0.51923131  0.42342416     0.43400
H697        H  0.71461144  0.49722656  0.65908389     0.43600
H698        H  0.90871221  0.48867209  0.54628456     0.43900
N699        N  0.50251787  0.30125520  0.50326803    -0.36200
N700        N  0.56604528  0.24686408  0.50191957    -0.56800
N701        N  0.51084331  0.18499547  0.50553023    -0.36200
N702        N  0.94659533  0.23946197  0.50186075    -0.56800
C703        C  0.53213423  0.32374908  0.49344274     0.27300
C704        C  0.96842462  0.32066990  0.49534256     0.27300
C705        C  0.54345323  0.16518126  0.49703869     0.27300
C706        C  0.98034940  0.16116046  0.49659381     0.27300
C707        C  0.58654440  0.27951120  0.50681353     0.36000
C708        C  0.59101687  0.21817503  0.50798428     0.34200
C709        C  0.92177043  0.26885569  0.50720828     0.36000
C710        C  0.92643056  0.20745274  0.50750576     0.36000
C711        C  0.51749994  0.35698143  0.47866116    -0.21500
C712        C  0.97705171  0.35615909  0.48193373    -0.21500
C713        C  0.53372815  0.12802575  0.48450958    -0.21500
C714        C  0.99429754  0.12536598  0.48489968    -0.21500
C715        C  0.62482419  0.27150161  0.51592013    -0.22600
C716        C  0.62765704  0.23266983  0.51660134    -0.22600
C717        C  0.88557216  0.25540056  0.51581620    -0.22600
C718        C  0.88852035  0.21659001  0.51605564    -0.22600
C719        C  0.57192012  0.31598990  0.49946033    -0.17900
C720        C  0.93061492  0.30736392  0.50174772    -0.17900
C721        C  0.94088532  0.16995188  0.50227532    -0.17900
C722        C  0.58175185  0.17907311  0.50269210    -0.17900
H723        H  0.53366527  0.38076569  0.46861673     0.15000
H724        H  0.95693427  0.37797466  0.47355805     0.15000
H725        H  0.55315916  0.10504816  0.47601284     0.15000
H726        H  0.97770830  0.09978152  0.47742310     0.15000
H727        H  0.64841118  0.29147422  0.52074906     0.13300
H728        H  0.65382641  0.21689632  0.52208048     0.13300
H729        H  0.85959687  0.27177894  0.52088002     0.13300
H730        H  0.86523136  0.19727672  0.52139201     0.13300
H731        H  0.50493444  0.27676454  0.51920548     0.26500
H732        H  0.50958648  0.21208015  0.51978683     0.26500
C733        C  0.76800559  0.19256288  0.27497640     0.86900
C734        C  0.73448839  0.19344978  0.24342224    -0.53400
C735        C  0.73291028  0.22601425  0.22303681     0.09800
C736        C  0.76438279  0.25510992  0.23625029     0.20700
C737        C  0.80402802  0.19989744  0.25028402    -0.54100
C738        C  0.80217766  0.23270173  0.22984428     0.09900
C739        C  0.76385924  0.22841562  0.30271576    -0.53600
C740        C  0.76054928  0.26097365  0.28310379     0.10400
H741        H  0.71394524  0.17039932  0.23764002     0.15000
H742        H  0.76231823  0.28178038  0.22000618     0.00700
H743        H  0.82784215  0.18026916  0.24687868     0.15300
H744        H  0.76305691  0.22782959  0.33590457     0.15100
N745        N  0.75963840  0.43661702  0.00539998    -0.36200
N746        N  0.81859847  0.49578701  0.00279733    -0.56800
N747        N  0.75812912  0.05311192  0.00254272    -0.36200
N748        N  0.69883390  0.49341578  0.00081698    -0.56800
C749        C  0.79144606  0.41502296  0.99907182     0.27300
C750        C  0.72857730  0.41383082  0.99730665     0.27300
C751        C  0.78890111  0.07579579  0.01225846     0.27300
C752        C  0.72608252  0.07418035  0.00930199     0.27300
C753        C  0.84190222  0.46572658  0.00880282     0.36000
C754        C  0.84061315  0.02753446  0.00133097     0.36000
C755        C  0.67659804  0.46254065  0.00557890     0.36000
C756        C  0.67689274  0.02338949  0.99362248     0.36000
C757        C  0.78040060  0.37804756  0.98731492    -0.21500
C758        C  0.74087363  0.37731126  0.98615039    -0.21500
C759        C  0.77625785  0.11178065  0.02516268    -0.21500
C760        C  0.73666469  0.11076642  0.02331867    -0.21500
C761        C  0.87946389  0.47824916  0.01600183    -0.22600
C762        C  0.87753621  0.01629366  0.99103615    -0.22600
C763        C  0.63885384  0.47375975  0.01196547    -0.22600
C764        C  0.64032854  0.01050736  0.98172175    -0.22600
C765        C  0.83018605  0.42706207  0.00539427    -0.17900
C766        C  0.68947020  0.42433990  0.00162753    -0.17900
C767        C  0.68772304  0.06207538  0.00054202    -0.17900
C768        C  0.82790534  0.06571508  0.00662030    -0.17900
H769        H  0.79890091  0.35395034  0.98032900     0.15000
H770        H  0.72321034  0.35253795  0.97815355     0.15000
H771        H  0.79373534  0.13639692  0.03442102     0.15000
H772        H  0.71784032  0.13448048  0.03092086     0.15000
H773        H  0.90474662  0.46107340  0.02116239     0.13300
H774        H  0.90148020  0.03436911  0.98445479     0.13300
H775        H  0.61423923  0.45570357  0.01607521     0.13300
H776        H  0.61546419  0.02749813  0.97427683     0.13300
H777        H  0.75925143  0.46404128  0.01879135     0.26500
H778        H  0.75900261  0.02633798  0.98747615     0.26500
O779        O  0.56652899  0.24003728  0.88397622    -0.74900
O780        O  0.61490734  0.23858357  0.93242760    -0.53800
C781        C  0.60230647  0.23889141  0.89497670     0.78800
O782        O  0.94671186  0.35316914  0.00657263    -0.59500
O783        O  0.90015612  0.30720871  0.00558244    -0.52600
C784        C  0.91141830  0.34213899  0.00664019     0.70800
O785        O  0.57437672  0.35040250  0.00048074    -0.74100
O786        O  0.61947356  0.30306165  0.99868474    -0.54700
C787        C  0.60924526  0.33834566  0.99952396     0.76800
O788        O  0.93958497  0.24444473  0.88971696    -0.59200
O789        O  0.89581619  0.24339867  0.94058326    -0.52400
C790        C  0.90498945  0.24455985  0.90274451     0.73400
Zr791      Zr  0.50426008  0.23986673  0.91589630     2.54700
O792        O  0.50257498  0.28342178  0.86096576    -0.79800
O793        O  0.00092106  0.18635855  0.86731484    -0.93200
Zr794      Zr  0.51009422  0.32344895  0.00182091     2.64700
O795        O  0.50788878  0.36402079  0.94418110    -0.98200
O796        O  0.51376313  0.37576527  0.05406625    -0.80200
O797        O  0.54494323  0.28153706  0.95701743    -0.83600
O798        O  0.97010011  0.28371826  0.96022022    -2.18300
O799        O  0.94315681  0.13907050  0.00227505    -0.67000
O800        O  0.89823510  0.18649422  0.00525840    -0.51500
C801        C  0.90832589  0.15121160  0.00412866     0.71800
O802        O  0.57943704  0.24506961  0.11251552    -0.59900
O803        O  0.62283230  0.24227681  0.06129004    -0.51900
C804        C  0.61402814  0.24297529  0.09935601     0.73600
O805        O  0.95095996  0.25109785  0.11821842    -0.71300
O806        O  0.90260481  0.25114914  0.06957395    -0.50000
C807        C  0.91518343  0.25152243  0.10700996     0.75000
O808        O  0.57084004  0.13547346  0.00109147    -0.66600
O809        O  0.61720492  0.18125829  0.99867363    -0.53800
C810        C  0.60602555  0.14644916  0.00005528     0.73400
Zr811      Zr  0.50752888  0.16471294  0.00008718     2.77500
O812        O  0.51056481  0.11983106  0.05371381    -0.97400
O813        O  0.50568994  0.11524930  0.94469767    -0.78200
Zr814      Zr  0.51341097  0.24842999  0.08616336     2.70100
O815        O  0.51495321  0.20242545  0.13861463    -0.79400
O816        O  0.51847357  0.30230725  0.13630459    -0.98500
Zr817      Zr  0.58393885  0.24269468  0.99849194     2.21500
Zr818      Zr  0.93418681  0.24631540  0.00414883     2.11100
O819        O  0.97315607  0.20772853  0.04615138    -2.47200
O820        O  0.54793874  0.20554047  0.04240120    -0.79200
O821        O  0.96846965  0.20336360  0.95921736    -0.71400
O822        O  0.54964768  0.28586658  0.04353691    -2.32400
O823        O  0.54370674  0.20092635  0.95593453    -2.28600
O824        O  0.97437785  0.28823217  0.04668716    -0.73200
H825        H  0.95316569  0.29896591  0.94409320     0.78800
H826        H  0.56714450  0.30187518  0.06025108     0.79900
H827        H  0.95744776  0.19318005  0.06348305     0.82100
H828        H  0.55891820  0.18416066  0.93833656     0.79700
H829        H  0.49499597  0.36912461  0.07474757     0.42800
H830        H  0.99926228  0.32089336  0.12969477     0.41700
H831        H  0.52321345  0.17847135  0.12405545     0.41400
H832        H  0.98658553  0.12596419  0.07066512     0.39400
H833        H  0.98847128  0.12732473  0.92426970     0.42500
H834        H  0.52509159  0.17333562  0.86745709     0.37300
H835        H  0.51316340  0.30751015  0.87377229     0.43400
H836        H  0.98188532  0.36362199  0.93392077     0.39800
H837        H  0.50078823  0.09566100  0.04028804     0.44700
H838        H  0.49442715  0.19447159  0.84128919     0.43400
H839        H  0.50479121  0.39002821  0.95685977     0.43600
H840        H  0.51586396  0.29105690  0.16309396     0.43900
C841        C  0.85598648  0.09648171  0.00608895    -0.12900
C842        C  0.87878737  0.12244606  0.00525066    -0.14500
C843        C  0.66115984  0.39366725  0.00070220    -0.12900
C844        C  0.63863442  0.36735616  0.99988585    -0.14500
C845        C  0.88257772  0.37169123  0.00736233    -0.12900
C846        C  0.85948773  0.39745186  0.00689328    -0.14500
C847        C  0.63482362  0.11693352  0.00009763    -0.12900
C848        C  0.65806235  0.09131331  0.99998980    -0.14500
C849        C  0.82105149  0.25740676  0.16296204    -0.13000
C850        C  0.83178173  0.24242925  0.20041329     0.09200
C851        C  0.87059978  0.23362435  0.20805851    -0.13000
C852        C  0.89782514  0.23796779  0.17816715    -0.13000
C853        C  0.88677532  0.25089566  0.13977839     0.09200
C854        C  0.84823121  0.26121040  0.13269254    -0.13000
H855        H  0.79141510  0.26467296  0.15627441     0.13200
H856        H  0.87982005  0.22263125  0.23691664     0.13200
H857        H  0.92731930  0.22982739  0.18465852     0.13200
H858        H  0.83896950  0.27159405  0.10354397     0.13200
C859        C  0.63717274  0.24567466  0.17264399    -0.13000
C860        C  0.64544440  0.24066574  0.13069452     0.09200
C861        C  0.68342376  0.23194723  0.11949085    -0.13000
C862        C  0.71219213  0.22770978  0.14963946    -0.13000
C863        C  0.70341211  0.23231314  0.19123549     0.09200
C864        C  0.66590374  0.24142598  0.20259428    -0.13000
H865        H  0.60832971  0.25247696  0.18247150     0.13200
H866        H  0.69072334  0.22756202  0.08755235     0.13200
H867        H  0.74098758  0.21985330  0.14053719     0.13200
H868        H  0.65882995  0.24490562  0.23468525     0.13200
C869        C  0.76919105  0.36176077  0.32791818    -0.13000
C870        C  0.74866291  0.35921704  0.36424937     0.09200
C871        C  0.72754828  0.32639525  0.37013516    -0.13000
C872        C  0.72866206  0.29578888  0.34133751    -0.13000
C873        C  0.75211346  0.29684072  0.30689506     0.09200
C874        C  0.77111468  0.33056923  0.29944441    -0.13000
H875        H  0.78537991  0.38714503  0.32260279     0.13200
H876        H  0.71067428  0.32419012  0.39728691     0.13200
H877        H  0.71252958  0.27046557  0.34705708     0.13200
H878        H  0.78920538  0.33204475  0.27312650     0.13200
C879        C  0.79913486  0.11204185  0.34144848    -0.13000
C880        C  0.76713350  0.11077694  0.36651492     0.09200
C881        C  0.73418067  0.13158383  0.35761014    -0.13000
C882        C  0.73376441  0.15485610  0.32488861    -0.13000
C883        C  0.76687393  0.15895206  0.30146781     0.09200
C884        C  0.79930363  0.13636927  0.30936871    -0.13000
H885        H  0.82429805  0.09488348  0.34740479     0.13200
H886        H  0.70874020  0.12964148  0.37584709     0.13200
H887        H  0.70833692  0.17183112  0.31952279     0.13200
H888        H  0.82533829  0.13822441  0.29236951     0.13200
C889        C  0.87378193  0.35856350  0.50200260    -0.12900
C890        C  0.89901910  0.33476230  0.50172470    -0.14500
C891        C  0.63857761  0.12788217  0.50169586    -0.12900
C892        C  0.61328933  0.15162450  0.50212770    -0.14500
C893        C  0.59955693  0.34681283  0.49650717    -0.12900
C894        C  0.62377779  0.37137976  0.49492555    -0.14500
C895        C  0.88863203  0.11431897  0.50173882    -0.12900
C896        C  0.91316607  0.13878196  0.50180570    -0.14500
C897        C  0.81137774  0.22971849  0.84188423    -0.13000
C898        C  0.81600485  0.25449557  0.81016579     0.09200
C899        C  0.85110478  0.27420568  0.80860301    -0.13000
C900        C  0.87977161  0.27067301  0.83872207    -0.13000
C901        C  0.87412619  0.24756786  0.87141481     0.09200
C902        C  0.83977742  0.22697502  0.87277956    -0.13000
H903        H  0.78601973  0.21242022  0.84332288     0.13200
H904        H  0.85691051  0.29213333  0.78383138     0.13200
H905        H  0.90633257  0.28647523  0.83671680     0.13200
H906        H  0.83528546  0.20818861  0.89719787     0.13200
C907        C  0.64633397  0.24921366  0.79132324    -0.13000
C908        C  0.68556531  0.24321979  0.80012102     0.09200
C909        C  0.69680113  0.23362454  0.83966845    -0.13000
C910        C  0.66977251  0.23128021  0.87027136    -0.13000
C911        C  0.63071310  0.23849586  0.86192920     0.09200
C912        C  0.61917177  0.24671697  0.82181638    -0.13000
H913        H  0.63678279  0.25671705  0.76107849     0.13200
H914        H  0.72667648  0.23003985  0.84777405     0.13200
H915        H  0.67966131  0.22476603  0.90073099     0.13200
H916        H  0.58927885  0.25239709  0.81420372     0.13200
C917        C  0.76878382  0.35719397  0.70149507    -0.13000
C918        C  0.74448417  0.32525548  0.69781602     0.09200
C919        C  0.71837143  0.32139202  0.66390593    -0.13000
C920        C  0.72011317  0.34578387  0.63201673    -0.13000
C921        C  0.74649169  0.37581177  0.63457491     0.09200
C922        C  0.76955687  0.38226178  0.67025214    -0.13000
H923        H  0.78816852  0.36273769  0.72744535     0.13200
H924        H  0.69851849  0.29763582  0.66070855     0.13200
H925        H  0.70100897  0.34116435  0.60543409     0.13200
H926        H  0.78929127  0.40611334  0.67336332     0.13200
C927        C  0.79038130  0.18628693  0.66175499    -0.13000
C928        C  0.76541071  0.18734386  0.69504201     0.09200
C929        C  0.74167840  0.15605168  0.70034628    -0.13000
C930        C  0.74109974  0.12526511  0.67116022    -0.13000
C931        C  0.76378864  0.12588782  0.63616624     0.09200
C932        C  0.78912380  0.15613870  0.63224332    -0.13000
H933        H  0.80948454  0.20988767  0.65740087     0.13200
H934        H  0.72196457  0.15646070  0.72547726     0.13200
H935        H  0.72161621  0.10182902  0.67487340     0.13200
H936        H  0.80760576  0.15665633  0.60610218     0.13200
C937        C  0.74958316  0.79147142  0.72428233     0.86900
C938        C  0.71332851  0.78323563  0.74766689    -0.53400
C939        C  0.71565943  0.75138872  0.76938846     0.09800
C940        C  0.75416170  0.72966639  0.76437745     0.20700
C941        C  0.78242989  0.79200313  0.75706843    -0.54100
C942        C  0.78535287  0.75936183  0.77781402     0.09900
C943        C  0.75703081  0.75559468  0.69754365    -0.53600
C944        C  0.75938951  0.72327447  0.71773819     0.10400
H945        H  0.68891019  0.80246575  0.74900597     0.15000
H946        H  0.75568784  0.70300852  0.78059664     0.00700
H947        H  0.80183097  0.81564722  0.76358885     0.15300
H948        H  0.75969067  0.75578407  0.66450120     0.15100
O949        O  0.65120875  0.56276572  0.49652916    -0.74900
O950        O  0.70136115  0.60501483  0.49894571    -0.53800
C951        C  0.66515569  0.59669242  0.49779797     0.78800
O952        O  0.75337768  0.93711729  0.61407652    -0.59500
O953        O  0.74797045  0.88924353  0.56396132    -0.52600
C954        C  0.74981811  0.90212517  0.60176894     0.70800
O955        O  0.75541767  0.56140936  0.61497013    -0.74100
O956        O  0.76386489  0.60318967  0.56533042    -0.54700
C957        C  0.76058032  0.59487365  0.60297054     0.76800
O958        O  0.64426454  0.93489746  0.49619676    -0.59200
O959        O  0.68947583  0.88773943  0.49625381    -0.52400
C960        C  0.65442210  0.89971505  0.49589592     0.73400
Zr961      Zr  0.67535673  0.99750865  0.49619339     2.54700
O962        O  0.62237757  0.00392190  0.54333384    -0.79800
O963        O  0.63107503  0.99659498  0.43708957    -0.93200
Zr964      Zr  0.75590802  0.99762718  0.58461780     2.64700
O965        O  0.70194194  0.50002036  0.63195228    -0.98200
O966        O  0.80788209  0.99705824  0.63605638    -0.80200
O967        O  0.71634350  0.53467489  0.54059524    -0.83600
O968        O  0.71267240  0.96093812  0.54112336    -2.18300
O969        O  0.75247133  0.92545596  0.38356986    -0.67000
O970        O  0.74739932  0.88342606  0.43349219    -0.51500
C971        C  0.74877108  0.89186237  0.39574378     0.71800
O972        O  0.86795011  0.55138085  0.50225624    -0.59900
O973        O  0.82252946  0.59823924  0.49993073    -0.51900
C974        C  0.85763895  0.58644713  0.50109033     0.73600
O975        O  0.86078831  0.92325663  0.50107977    -0.71300
O976        O  0.81052111  0.88116333  0.49889389    -0.50000
C977        C  0.84674322  0.88939410  0.49947043     0.75000
O978        O  0.76644430  0.54790740  0.38481729    -0.66600
O979        O  0.76158973  0.59616111  0.43445449    -0.53800
C980        C  0.76520984  0.58302804  0.39711084     0.73400
Zr981      Zr  0.75716973  0.98901163  0.41476401     2.77500
O982        O  0.80631654  0.98255146  0.36296350    -0.97400
O983        O  0.70462415  0.99238962  0.36424595    -0.78200
Zr984      Zr  0.83736093  0.98873783  0.50248889     2.70100
O985        O  0.88544970  0.98140312  0.44979116    -0.79400
O986        O  0.88494346  0.99047988  0.55860366    -0.98500
Zr987      Zr  0.76002329  0.56657921  0.49957716     2.21500
Zr988      Zr  0.75185293  0.91969491  0.49914806     2.11100
O989        O  0.79536781  0.95177950  0.45767068    -2.47200
O990        O  0.79949237  0.52547342  0.45804002    -0.79200
O991        O  0.71364829  0.95611316  0.45443555    -0.71400
O992        O  0.79826593  0.53010462  0.54422156    -2.32400
O993        O  0.71767827  0.52970458  0.45428387    -2.28600
O994        O  0.79503133  0.95595307  0.54405347    -0.73200
H995        H  0.69579036  0.94662356  0.55749054     0.78800
H996        H  0.81478750  0.54626390  0.56195290     0.79900
H997        H  0.81010492  0.93388208  0.44087732     0.82100
H998        H  0.70321189  0.54574563  0.43660633     0.79700
H999        H  0.82889602  0.49709420  0.62277732     0.42800
H1000       H  0.87699162  0.97000989  0.57596897     0.41700
H1001       H  0.87869328  0.50101458  0.43088293     0.41400
H1002       H  0.81994571  0.95861982  0.36822425     0.39400
H1003       H  0.69801968  0.01967890  0.36400283     0.42500
H1004       H  0.64058393  0.47526471  0.41751333     0.37300
H1005       H  0.64067869  0.51258037  0.57290524     0.43400
H1006       H  0.68898089  0.98040526  0.62904597     0.39800
H1007       H  0.79180006  0.97693527  0.33681014     0.44700
H1008       H  0.60535614  0.99311175  0.44867587     0.43400
H1009       H  0.71903514  0.99780124  0.66155341     0.43600
H1010       H  0.90886339  0.98089739  0.54581258     0.43900
N1011       N  0.50172914  0.80198410  0.50349090    -0.36200
N1012       N  0.56529009  0.74712471  0.49992697    -0.56800
N1013       N  0.50998703  0.68516120  0.50365409    -0.36200
N1014       N  0.94660919  0.73952604  0.49643757    -0.56800
C1015       C  0.53137693  0.82481341  0.49434759     0.27300
C1016       C  0.96931799  0.82145069  0.50066974     0.27300
C1017       C  0.54256042  0.66494479  0.49614585     0.27300
C1018       C  0.97991519  0.66206594  0.50477601     0.27300
C1019       C  0.58609801  0.77965092  0.50396403     0.36000
C1020       C  0.59046862  0.71816681  0.50390859     0.34200
C1021       C  0.92196037  0.76830545  0.48938295     0.36000
C1022       C  0.92603332  0.70690756  0.49100706     0.36000
C1023       C  0.51666980  0.85869737  0.48129503    -0.21500
C1024       C  0.97896227  0.85879948  0.51250463    -0.21500
C1025       C  0.53279462  0.62725446  0.48640256    -0.21500
C1026       C  0.99421553  0.62829947  0.51861181    -0.21500
C1027       C  0.62476331  0.77123927  0.51021295    -0.22600
C1028       C  0.62751720  0.73238957  0.51010110    -0.22600
C1029       C  0.88552940  0.75389710  0.47956162    -0.22600
C1030       C  0.88808950  0.71508176  0.48061693    -0.22600
C1031       C  0.57131843  0.81656372  0.49883600    -0.17900
C1032       C  0.93111647  0.80744772  0.49491300    -0.17900
C1033       C  0.94023556  0.67018458  0.49830542    -0.17900
C1034       C  0.58094108  0.67901766  0.49974393    -0.17900
H1035       H  0.53278940  0.88281584  0.47199096     0.15000
H1036       H  0.95949560  0.88199908  0.52006664     0.15000
H1037       H  0.55214071  0.60384564  0.47931906     0.15000
H1038       H  0.97780489  0.60422453  0.52755054     0.15000
H1039       H  0.64865403  0.79097344  0.51377467     0.13300
H1040       H  0.65388344  0.71643555  0.51366948     0.13300
H1041       H  0.85966078  0.76973669  0.47291582     0.13300
H1042       H  0.86454339  0.69519489  0.47493638     0.13300
H1043       H  0.50424696  0.77677442  0.51807616     0.26500
H1044       H  0.50875770  0.71298101  0.51569196     0.26500
C1045       C  0.76785472  0.69359299  0.27566740     0.86900
C1046       C  0.73419146  0.69451893  0.24425345    -0.53400
C1047       C  0.73245247  0.72712249  0.22397266     0.09800
C1048       C  0.76399317  0.75614998  0.23699295     0.20700
C1049       C  0.80377670  0.70096299  0.25089652    -0.54100
C1050       C  0.80181868  0.73372720  0.23043439     0.09900
C1051       C  0.76382408  0.72941935  0.30347430    -0.53600
C1052       C  0.76018032  0.76199890  0.28386468     0.10400
H1053       H  0.71363666  0.67147170  0.23852928     0.15000
H1054       H  0.76187290  0.78274545  0.22062399     0.00700
H1055       H  0.82760040  0.68135776  0.24738414     0.15300
H1056       H  0.76321518  0.72870847  0.33665210     0.15100
N1057       N  0.76050100  0.93708516  0.00414572    -0.36200
N1058       N  0.81900535  0.99663266  0.00792813    -0.56800
N1059       N  0.75782105  0.55277200  0.00182856    -0.36200
N1060       N  0.69984209  0.99350572  0.00137219    -0.56800
C1061       C  0.79229076  0.91712527  0.01409770     0.27300
C1062       C  0.72949032  0.91555629  0.01159400     0.27300
C1063       C  0.78874638  0.57474453  0.99508104     0.27300
C1064       C  0.72585937  0.57346781  0.99423082     0.27300
C1065       C  0.84178213  0.96579190  0.00127104     0.36000
C1066       C  0.84094506  0.52737284  0.00680562     0.36000
C1067       C  0.67820754  0.96170756  0.99429419     0.36000
C1068       C  0.67564257  0.52421901  0.00465453     0.36000
C1069       C  0.78137295  0.88254574  0.02827167    -0.21500
C1070       C  0.74175699  0.88158062  0.02674417    -0.21500
C1071       C  0.77620412  0.60987958  0.98327122    -0.21500
C1072       C  0.73667003  0.60907351  0.98271912    -0.21500
C1073       C  0.87824781  0.97720499  0.99089359    -0.22600
C1074       C  0.87886227  0.51721738  0.01472748    -0.22600
C1075       C  0.64116450  0.97146433  0.98214196    -0.22600
C1076       C  0.63825484  0.51278164  0.01142106    -0.22600
C1077       C  0.83065904  0.92783833  0.00708658    -0.17900
C1078       C  0.69073431  0.92444224  0.00181324    -0.17900
C1079       C  0.68726475  0.56221116  0.99972110    -0.17900
C1080       C  0.82794136  0.56497756  0.00141975    -0.17900
H1081       H  0.80001563  0.85999725  0.03792171     0.15000
H1082       H  0.72403847  0.85815453  0.03501285     0.15000
H1083       H  0.79370069  0.63386805  0.97617019     0.15000
H1084       H  0.71802288  0.63233767  0.97512161     0.15000
H1085       H  0.90286974  0.95927165  0.98426986     0.13300
H1086       H  0.90357934  0.53588612  0.01879530     0.13300
H1087       H  0.61706906  0.95250296  0.97511272     0.13300
H1088       H  0.61306949  0.53062950  0.01501088     0.13300
H1089       H  0.76018688  0.96154364  0.98802419     0.26500
H1090       H  0.75846112  0.52696141  0.01529012     0.26500
O1091       O  0.56757355  0.74148153  0.88431078    -0.74900
O1092       O  0.61584849  0.74046487  0.93289363    -0.53800
C1093       C  0.60335569  0.74057762  0.89538266     0.78800
O1094       O  0.94653061  0.85336505  0.00433828    -0.59500
O1095       O  0.90009269  0.80739651  0.00462050    -0.52600
C1096       C  0.91129635  0.84232359  0.00477410     0.70800
O1097       O  0.57485480  0.85107066  0.00001886    -0.74100
O1098       O  0.61990940  0.80369232  0.99891833    -0.54700
C1099       C  0.60976933  0.83895996  0.99927911     0.76800
O1100       O  0.93998363  0.74402337  0.88890103    -0.59200
O1101       O  0.89586039  0.74325065  0.93941769    -0.52400
C1102       C  0.90530886  0.74402578  0.90164926     0.73400
Zr1103     Zr  0.50493245  0.74094127  0.91565923     2.54700
O1104       O  0.50133880  0.78474564  0.86101046    -0.79800
O1105       O  0.00344379  0.68787472  0.86589761    -0.93200
Zr1106     Zr  0.51039066  0.82413853  0.00257086     2.64700
O1107       O  0.50641630  0.86833724  0.94827624    -0.98200
O1108       O  0.51578358  0.87272843  0.05873944    -0.80200
O1109       O  0.54531979  0.78260967  0.95726027    -0.83600
O1110       O  0.97012322  0.78414813  0.95995173    -2.18300
O1111       O  0.94311407  0.63900708  0.99936235    -0.67000
O1112       O  0.89792948  0.68620419  0.00277530    -0.51500
C1113       C  0.90819724  0.65095258  0.00104925     0.71800
O1114       O  0.57889840  0.74570410  0.11337914    -0.59900
O1115       O  0.62238413  0.74310575  0.06219951    -0.51900
C1116       C  0.61349593  0.74377715  0.10027950     0.73600
O1117       O  0.94973016  0.75022024  0.11701382    -0.71300
O1118       O  0.90144946  0.74975738  0.06826376    -0.50000
C1119       C  0.91392978  0.75032115  0.10577205     0.75000
O1120       O  0.57118935  0.63628625  0.99962101    -0.66600
O1121       O  0.61763340  0.68213027  0.99807841    -0.53800
C1122       C  0.60639736  0.64729196  0.99896083     0.73400
Zr1123     Zr  0.50777581  0.66538760  0.99941646     2.77500
O1124       O  0.51026446  0.61983774  0.05242621    -0.97400
O1125       O  0.50446278  0.61723551  0.94276360    -0.78200
Zr1126     Zr  0.51323307  0.74882008  0.08621650     2.70100
O1127       O  0.51639143  0.70515828  0.14099492    -0.79400
O1128       O  0.51754643  0.80490108  0.13342570    -0.98500
Zr1129     Zr  0.58424661  0.74349801  0.99867034     2.21500
Zr1130     Zr  0.93382208  0.74616922  0.00311973     2.11100
O1131       O  0.97275505  0.70725537  0.04481422    -2.47200
O1132       O  0.54792910  0.70613872  0.04219753    -0.79200
O1133       O  0.96870224  0.70360860  0.95823210    -0.71400
O1134       O  0.54984327  0.78625250  0.04389473    -2.32400
O1135       O  0.54422415  0.70184544  0.95572554    -2.28600
O1136       O  0.97363084  0.78759776  0.04649848    -0.73200
H1137       H  0.95342151  0.79949598  0.94366750     0.78800
H1138       H  0.56732738  0.80220950  0.06068441     0.79900
H1139       H  0.95692409  0.69254535  0.06186404     0.82100
H1140       H  0.55962369  0.68522997  0.93817028     0.79700
H1141       H  0.49213447  0.86995402  0.07453841     0.42800
H1142       H  0.99190611  0.81251686  0.13936207     0.41700
H1143       H  0.49960652  0.68363967  0.13110851     0.41400
H1144       H  0.98532330  0.62755603  0.07021824     0.39400
H1145       H  0.01233026  0.62844017  0.92044089     0.42500
H1146       H  0.52251795  0.66966828  0.87404112     0.37300
H1147       H  0.51036002  0.80931989  0.87410895     0.43400
H1148       H  0.98479804  0.86867089  0.93730848     0.39800
H1149       H  0.50477021  0.59500421  0.03761535     0.44700
H1150       H  0.50972780  0.69670096  0.84003684     0.43400
H1151       H  0.49891339  0.89282584  0.96226041     0.43600
H1152       H  0.51717951  0.79478553  0.16098601     0.43900
C1153       C  0.85621474  0.59570047  0.00152880    -0.12900
C1154       C  0.87881349  0.62191860  0.00131793    -0.14500
C1155       C  0.66254901  0.89360616  0.00020993    -0.12900
C1156       C  0.63945863  0.86773869  0.99934589    -0.14500
C1157       C  0.88252170  0.87191802  0.00539222    -0.12900
C1158       C  0.85969480  0.89793131  0.00608196    -0.14500
C1159       C  0.63512545  0.61775340  0.99922273    -0.12900
C1160       C  0.65803707  0.59188043  0.99949300    -0.14500
C1161       C  0.81990318  0.75652972  0.16242681    -0.13000
C1162       C  0.83111808  0.74299870  0.20044584     0.09200
C1163       C  0.87007117  0.73468915  0.20800201    -0.13000
C1164       C  0.89698006  0.73823511  0.17758305    -0.13000
C1165       C  0.88551636  0.74982434  0.13870664     0.09200
C1166       C  0.84676187  0.75946881  0.13161393    -0.13000
H1167       H  0.79011776  0.76328873  0.15580260     0.13200
H1168       H  0.87962459  0.72466608  0.23722336     0.13200
H1169       H  0.92661124  0.73062969  0.18415839     0.13200
H1170       H  0.83711030  0.76879258  0.10211994     0.13200
C1171       C  0.63703405  0.74857428  0.17357439    -0.13000
C1172       C  0.64487678  0.74163275  0.13168929     0.09200
C1173       C  0.68241634  0.73111058  0.12058252    -0.13000
C1174       C  0.71116692  0.72692275  0.15072335    -0.13000
C1175       C  0.70288156  0.73346110  0.19225030     0.09200
C1176       C  0.66583213  0.74450632  0.20356687    -0.13000
H1177       H  0.60850624  0.75681036  0.18328699     0.13200
H1178       H  0.68933957  0.72519955  0.08872675     0.13200
H1179       H  0.73958262  0.71765140  0.14170537     0.13200
H1180       H  0.65914085  0.74952874  0.23562927     0.13200
C1181       C  0.76493253  0.86385035  0.32619975    -0.13000
C1182       C  0.74662987  0.86076777  0.36380271     0.09200
C1183       C  0.72742969  0.82720416  0.37121542    -0.13000
C1184       C  0.72885172  0.79629213  0.34290975    -0.13000
C1185       C  0.75089433  0.79778837  0.30745106     0.09200
C1186       C  0.76729558  0.83234106  0.29821693    -0.13000
H1187       H  0.77937819  0.88988008  0.31955030     0.13200
H1188       H  0.71202937  0.82458198  0.39929229     0.13200
H1189       H  0.71413891  0.77049565  0.34985090     0.13200
H1190       H  0.78392841  0.83434065  0.27089909     0.13200
C1191       C  0.79829517  0.61111676  0.33997569    -0.13000
C1192       C  0.76639866  0.60977386  0.36517780     0.09200
C1193       C  0.73390247  0.63160056  0.35739607    -0.13000
C1194       C  0.73374817  0.65578462  0.32552464    -0.13000
C1195       C  0.76672177  0.65980734  0.30190036     0.09200
C1196       C  0.79877429  0.63640453  0.30878535    -0.13000
H1197       H  0.82318239  0.59338160  0.34524868     0.13200
H1198       H  0.70863653  0.62982587  0.37592814     0.13200
H1199       H  0.70861915  0.67337833  0.32092887     0.13200
H1200       H  0.82470598  0.63821221  0.29160571     0.13200
C1201       C  0.87426273  0.85858929  0.49770917    -0.12900
C1202       C  0.89950298  0.83480683  0.49613657    -0.14500
C1203       C  0.63757747  0.62750514  0.49804750    -0.12900
C1204       C  0.61244523  0.65144634  0.49858461    -0.14500
C1205       C  0.59920333  0.84742272  0.49660971    -0.12900
C1206       C  0.62403415  0.87156915  0.49571368    -0.14500
C1207       C  0.88782545  0.61479772  0.50086295    -0.12900
C1208       C  0.91225839  0.63934903  0.50003449    -0.14500
C1209       C  0.81172691  0.72899748  0.84096332    -0.13000
C1210       C  0.81665462  0.75330033  0.80888130     0.09200
C1211       C  0.85205973  0.77229823  0.80670954    -0.13000
C1212       C  0.88070552  0.76880141  0.83679617    -0.13000
C1213       C  0.87468032  0.74648750  0.87005192     0.09200
C1214       C  0.84009150  0.72636253  0.87187317    -0.13000
H1215       H  0.78614551  0.71206597  0.84271665     0.13200
H1216       H  0.85804091  0.78972371  0.78155662     0.13200
H1217       H  0.90748325  0.78415739  0.83440588     0.13200
H1218       H  0.83533994  0.70810798  0.89671006     0.13200
C1219       C  0.64710123  0.74861853  0.79108588    -0.13000
C1220       C  0.68640793  0.74337038  0.79998492     0.09200
C1221       C  0.69790778  0.73516230  0.83991363    -0.13000
C1222       C  0.67100201  0.73340042  0.87075107    -0.13000
C1223       C  0.63181386  0.73991485  0.86228313     0.09200
C1224       C  0.62007407  0.74674939  0.82181623    -0.13000
H1225       H  0.63739824  0.75510345  0.76054847     0.13200
H1226       H  0.72786598  0.73234152  0.84807793     0.13200
H1227       H  0.68107230  0.72790018  0.90144739     0.13200
H1228       H  0.59008666  0.75176292  0.81403839     0.13200
C1229       C  0.76965032  0.85673920  0.70120470    -0.13000
C1230       C  0.74542406  0.82474383  0.69713482     0.09200
C1231       C  0.71959023  0.82093983  0.66298915    -0.13000
C1232       C  0.72153777  0.84544730  0.63127920    -0.13000
C1233       C  0.74773616  0.87557452  0.63429795     0.09200
C1234       C  0.77053458  0.88200270  0.67016171    -0.13000
H1235       H  0.78874699  0.86227130  0.72740049     0.13200
H1236       H  0.69977879  0.79716607  0.65948939     0.13200
H1237       H  0.70264786  0.84091677  0.60451176     0.13200
H1238       H  0.79006604  0.90600999  0.67358873     0.13200
C1239       C  0.78990654  0.68625968  0.66020351    -0.13000
C1240       C  0.76596529  0.68681393  0.69433352     0.09200
C1241       C  0.74341678  0.65494121  0.70064394    -0.13000
C1242       C  0.74246650  0.62428595  0.67133072    -0.13000
C1243       C  0.76353173  0.62566114  0.63522377     0.09200
C1244       C  0.78812193  0.65632954  0.63051943    -0.13000
H1245       H  0.80845076  0.71014297  0.65525955     0.13200
H1246       H  0.72472808  0.65479957  0.72662073     0.13200
H1247       H  0.72380581  0.60039305  0.67584875     0.13200
H1248       H  0.80559999  0.65736742  0.60365309     0.13200
loop_ 
_geom_bond_atom_site_label_1 
_geom_bond_atom_site_label_2 
_geom_bond_distance 
_geom_bond_site_symmetry_2 
_ccdc_geom_bond_type 
C1            C2   1.529       .  S
C1            C7   1.520       .  S
C1            C5   1.546       .  S
C1          C294   1.518       .  S
C2            H9   1.086       .  S
C2            C3   1.365       .  D
C3            C4   1.545       .  S
C3          C284   1.476       .  S
C4            C8   1.541       .  S
C4            C6   1.540       .  S
C4           H10   1.109       .  S
C5           H11   1.080       .  S
C5            C6   1.374       .  D
C6          C274   1.491       .  S
C7           H12   1.088       .  S
C7            C8   1.354       .  D
C8          C304   1.472       .  S
O13          C15   1.288       .  A
O13        Zr337   2.446   1_545  S
O14          C15   1.290       .  A
O14         Zr51   2.447       .  S
C15         C267   1.445       .  S
O16          C18   1.280       .  A
O16         Zr28   2.403       .  S
O17          C18   1.290       .  A
O17         Zr52   2.440       .  S
C18         C297   1.463       .  S
O19          C21   1.282       .  A
O19        Zr340   2.413   1_545  S
O20          C21   1.289       .  A
O20         Zr51   2.434       .  S
C21         C307   1.467       .  S
O22          C24   1.289       .  A
O22         Zr25   2.452       .  S
O23          C24   1.289       .  A
O23         Zr52   2.440       .  S
C24         C270   1.445       .  S
Zr25        O325   2.450       .  S
Zr25         O26   2.434       .  S
Zr25         O27   2.437       .  S
Zr25         O32   2.372       .  S
Zr25         O55   2.374       .  S
Zr25        O343   2.375       .  S
Zr25        O369   2.371       .  S
O26         H381   0.990       .  S
O27          H72   0.990       .  S
O27         H380   0.990       .  S
Zr28        O331   2.415       .  S
Zr28         O30   2.435       .  S
Zr28        O341   2.436       .  S
Zr28         O32   2.365       .  S
Zr28         O58   2.372       .  S
Zr28        O343   2.367       .  S
Zr28        O368   2.364       .  S
O29        Zr340   2.437   1_545  S
O29         H382   0.990   1_545  S
O29         H385   0.990       .  S
O30         H375   0.990       .  S
O31         Zr51   2.383       .  S
O31        Zr337   2.377   1_545  S
O31        Zr340   2.365   1_545  S
O32         Zr52   2.389       .  S
O32          H59   0.967       .  S
O33          C35   1.282       .  A
O33         Zr45   2.411       .  S
O34          C35   1.291       .  A
O34         Zr52   2.441       .  S
C35         C246   1.471       .  S
O36          C38   1.290       .  A
O36        Zr360   2.458   1_545  S
O37          C38   1.289       .  A
O37         Zr51   2.441       .  S
C38         C271   1.449       .  S
O39          C41   1.288       .  A
O39         Zr48   2.450       .  S
O40          C41   1.293       .  A
O40         Zr52   2.459       .  S
C41         C265   1.451       .  S
O42          C44   1.278       .  A
O42        Zr357   2.395   1_545  S
O43          C44   1.288       .  A
O43         Zr51   2.431       .  S
C44         C256   1.448       .  S
Zr45        O354   2.407       .  S
Zr45         O46   2.438       .  S
Zr45         O47   2.435       .  S
Zr45         O53   2.364       .  S
Zr45         O55   2.369       .  S
Zr45        O366   2.367       .  S
Zr45        O369   2.370       .  S
O46          H66   0.990       .  S
O46          H71   0.990       .  S
O47          H67   0.990       .  S
Zr48        O348   2.456       .  S
Zr48         O49   2.435       .  S
Zr48         O50   2.434       .  S
Zr48         O53   2.374       .  S
Zr48         O58   2.377       .  S
Zr48        O366   2.371       .  S
Zr48        O368   2.374       .  S
O49         H377   0.990       .  S
O50          H64   0.990       .  S
O50          H74   0.990       .  S
Zr51         O54   2.386       .  S
Zr51         O56   2.385       .  S
Zr51         O57   2.387       .  S
Zr52         O53   2.388       .  S
Zr52         O55   2.384       .  S
Zr52         O58   2.388       .  S
O53          H61   0.966       .  S
O54        Zr357   2.371   1_545  S
O54        Zr360   2.373   1_545  S
O56        Zr340   2.365   1_545  S
O56        Zr360   2.371   1_545  S
O56          H60   0.965       .  S
O57        Zr337   2.371   1_545  S
O57        Zr357   2.367   1_545  S
O57          H62   0.965       .  S
H63         O342   0.990       .  S
H65         O361   0.990       .  S
H68         O339   0.990   1_545  S
H69         O338   0.990   1_565  S
H70         O341   0.990       .  S
H73         O341   0.990       .  S
N75         H107   1.038       .  S
N75          C79   1.357       .  A
N75         C704   1.357   1_455  A
N76          C83   1.353       .  A
N76          C84   1.354       .  A
N77         H108   1.037       .  S
N77          C81   1.356       .  A
N77         C706   1.356   1_455  A
N78          C85   1.354       .  A
N78          C86   1.354       .  A
C79          C87   1.387       .  A
C79          C95   1.420       .  A
C80         N699   1.357       .  A
C80          C96   1.421       .  A
C80          C88   1.387       .  A
C81          C89   1.388       .  A
C81          C98   1.420       .  A
C82         N701   1.357       .  A
C82          C97   1.421       .  A
C82          C90   1.387       .  A
C83          C95   1.416       .  A
C83          C91   1.388       .  A
C84          C98   1.415       .  A
C84          C92   1.387       .  A
C85          C93   1.386       .  A
C85          C96   1.416       .  A
C86          C94   1.388       .  A
C86          C97   1.416       .  A
C87         C712   1.378   1_455  A
C87          H99   1.082       .  S
C88         C711   1.379       .  A
C88         H100   1.082       .  S
C89         C714   1.378   1_455  A
C89         H101   1.082       .  S
C90         C713   1.379       .  A
C90         H102   1.082       .  S
C91          C92   1.374       .  A
C91         H103   1.083       .  S
C92         H104   1.082       .  S
C93          C94   1.375       .  A
C93         H105   1.082       .  S
C94         H106   1.082       .  S
C95         C269   1.460       .  S
C96         C266   1.465       .  S
C97         C272   1.463       .  S
C98         C268   1.460       .  S
C109        C110   1.536       .  S
C109        C115   1.520       .  S
C109        C113   1.537       .  S
C109        C259   1.511       .  S
C110        H117   1.086       .  S
C110        C111   1.363       .  D
C111        C112   1.534       .  S
C111        C239   1.465       .  S
C112        C116   1.544       .  S
C112        C114   1.546       .  S
C112        H118   1.110       .  S
C113        H119   1.082       .  S
C113        C114   1.371       .  D
C114        C226   1.482       .  S
C115        H120   1.088       .  S
C115        C116   1.354       .  D
C116        C249   1.479       .  S
N121        H153   1.037   1_554  S
N121        C126   1.354       .  A
N121        C125   1.354       .  A
N122        C129   1.355   1_554  A
N122        C442   1.355   1_554  A
N123        H154   1.036   1_554  S
N123        C128   1.354       .  A
N123        C127   1.354       .  A
N124        C131   1.355       .  A
N124        C444   1.355       .  A
C125        C133   1.388       .  A
C125        C141   1.415       .  A
C126        C142   1.416       .  A
C126        C134   1.389       .  A
C127        C135   1.388       .  A
C127        C144   1.415       .  A
C128        C143   1.416       .  A
C128        C136   1.388       .  A
C129        C141   1.419   1_556  A
C129        C137   1.387       .  A
C130        N434   1.355   1_545  A
C130        C144   1.420       .  A
C130        C138   1.387   1_554  A
C131        C139   1.387       .  A
C131        C142   1.420   1_556  A
C132        N436   1.355   1_545  A
C132        C140   1.386   1_554  A
C132        C143   1.419       .  A
C133        C134   1.374       .  A
C133        H145   1.083       .  S
C134        H146   1.083       .  S
C135        C136   1.373       .  A
C135        H147   1.082       .  S
C136        H148   1.083       .  S
C137        C450   1.378       .  A
C137        H149   1.082       .  S
C138        C449   1.377   1_545  A
C138        H150   1.082       .  S
C139        C452   1.378       .  A
C139        H151   1.082       .  S
C140        C451   1.376   1_545  A
C140        H152   1.082       .  S
C141        C222   1.458       .  S
C142        C219   1.458       .  S
C143        C224   1.458       .  S
C144        C217   1.458       .  S
O155        C157   1.286       .  A
O155       Zr167   2.429       .  S
O156        C157   1.289       .  A
O156       Zr193   2.431       .  S
C157        C287   1.482       .  S
O158        C160   1.285       .  A
O158       Zr794   2.434       .  S
O159        C160   1.291       .  A
O159       Zr194   2.453       .  S
C160        C221   1.443       .  S
O161        C163   1.284       .  A
O161       Zr170   2.431       .  S
O162        C163   1.292       .  A
O162       Zr193   2.457   1_554  S
C163        C220   1.443       .  S
O164        C166   1.285       .  A
O164       Zr791   2.423       .  S
O165        C166   1.289       .  A
O165       Zr194   2.437   1_556  S
C166        C277   1.473       .  S
Zr167       O788   2.425   1_455  S
Zr167       O168   2.435       .  S
Zr167       O793   2.435       .  S
Zr167       O173   2.369       .  S
Zr167       O199   2.368       .  S
Zr167       O798   2.368   1_455  S
Zr167       O821   2.370   1_455  S
O168        H211   0.990   1_455  S
O169       Zr791   2.433       .  S
O169        H834   0.990       .  S
O169        H838   0.990       .  S
Zr170       O782   2.442   1_455  S
Zr170       O171   2.437   1_554  S
Zr170       O172   2.433       .  S
Zr170       O173   2.371   1_554  S
Zr170       O198   2.374       .  S
Zr170       O798   2.363   1_454  S
Zr170       O824   2.373   1_455  S
O171        H215   0.990       .  S
O171        H836   0.990   1_455  S
O172        H205   0.990       .  S
O173       Zr193   2.383       .  S
O174       Zr194   2.386   1_556  S
O174       Zr791   2.368       .  S
O174       Zr794   2.365   1_556  S
O174        H201   0.965       .  S
O175        C177   1.284       .  A
O175       Zr811   2.431       .  S
O176        C177   1.292       .  A
O176       Zr194   2.456       .  S
C177        C218   1.443       .  S
O178        C180   1.287       .  A
O178       Zr190   2.432       .  S
O179        C180   1.288       .  A
O179       Zr193   2.426   1_554  S
C180        C236   1.480       .  S
O181        C183   1.287       .  A
O181       Zr814   2.432       .  S
O182        C183   1.288       .  A
O182       Zr194   2.427       .  S
C183        C229   1.478       .  S
O184        C186   1.285       .  A
O184       Zr187   2.431       .  S
O185        C186   1.291   1_556  A
O185       Zr193   2.450       .  S
C186        C223   1.442       .  S
Zr187       O799   2.437   1_455  S
Zr187       O188   2.434       .  S
Zr187       O189   2.433   1_554  S
Zr187       O196   2.369       .  S
Zr187       O199   2.371   1_554  S
Zr187       O819   2.368   1_455  S
Zr187       O821   2.372   1_454  S
O188        H213   0.990       .  S
O188        H832   0.990   1_455  S
O189        H833   0.990   1_455  S
Zr190       O805   2.429   1_455  S
Zr190       O191   2.434       .  S
Zr190       O192   2.434       .  S
Zr190       O196   2.365       .  S
Zr190       O198   2.365       .  S
Zr190       O819   2.371   1_455  S
Zr190       O824   2.370   1_455  S
O191        H207   0.990       .  S
O192        H216   0.990       .  S
O192        H830   0.990   1_455  S
Zr193       O196   2.382   1_556  S
Zr193       O198   2.389   1_556  S
Zr193       O199   2.387       .  S
Zr194       O195   2.389       .  S
Zr194       O197   2.386   1_554  S
Zr194       O200   2.390       .  S
O195       Zr811   2.369       .  S
O195       Zr814   2.370       .  S
O195        H203   0.967       .  S
O197       Zr791   2.369       .  S
O197       Zr811   2.375   1_556  S
O198        H202   0.965       .  S
O199        H204   0.966       .  S
O200       Zr794   2.373       .  S
O200       Zr814   2.368       .  S
H206        O816   0.990       .  S
H208        O812   0.990       .  S
H209        O813   0.990       .  S
H210        O793   0.990       .  S
H212        O795   0.990       .  S
H214        O793   0.990       .  S
C217        C218   1.211       .  T
C219        C220   1.211       .  T
C221        C222   1.211       .  T
C223        C224   1.211       .  T
C225        C226   1.405       .  A
C225        C230   1.399       .  A
C225        H231   1.081       .  S
C226        C227   1.403       .  A
C227        C228   1.394       .  A
C227        H232   1.083       .  S
C228        C229   1.406       .  A
C228        H233   1.083       .  S
C229        C230   1.405       .  A
C230        H234   1.083       .  S
C235        C236   1.409       .  A
C235        C240   1.394       .  A
C235        H241   1.083       .  S
C236        C237   1.407       .  A
C237        C238   1.398       .  A
C237        H242   1.083       .  S
C238        C239   1.400       .  A
C238        H243   1.083       .  S
C239        C240   1.397       .  A
C240        H244   1.084       .  S
C245        C246   1.410       .  A
C245        C250   1.399       .  A
C245        H251   1.083       .  S
C246        C247   1.397       .  A
C247        C248   1.390       .  A
C247        H252   1.084       .  S
C248        C249   1.410       .  A
C248        H253   1.083       .  S
C249        C250   1.398       .  A
C250        H254   1.083       .  S
C255        C256   1.399       .  A
C255        C260   1.394       .  A
C255        H261   1.084       .  S
C256        C257   1.394       .  A
C257        C258   1.388       .  A
C257        H262   1.084       .  S
C258        C259   1.411       .  A
C258        H263   1.084       .  S
C259        C260   1.407       .  A
C260        H264   1.078       .  S
C265        C266   1.216       .  T
C267        C268   1.212       .  T
C269        C270   1.212       .  T
C271        C272   1.214       .  T
C273        C274   1.409       .  A
C273        C278   1.401       .  A
C273        H279   1.077       .  S
C274        C275   1.405       .  A
C275        C276   1.392       .  A
C275        H280   1.082       .  S
C276        C277   1.403       .  A
C276        H281   1.083       .  S
C277        C278   1.401       .  A
C278        H282   1.083       .  S
C283        C284   1.401       .  A
C283        C288   1.397       .  A
C283        H289   1.083       .  S
C284        C285   1.401       .  A
C285        C286   1.395       .  A
C285        H290   1.076       .  S
C286        C287   1.404       .  A
C286        H291   1.083       .  S
C287        C288   1.410       .  A
C288        H292   1.083       .  S
C293        C294   1.405       .  A
C293        C298   1.392       .  A
C293        H299   1.077       .  S
C294        C295   1.413       .  A
C295        C296   1.395       .  A
C295        H300   1.084       .  S
C296        C297   1.397       .  A
C296        H301   1.083       .  S
C297        C298   1.403       .  A
C298        H302   1.084       .  S
C303        C304   1.408       .  A
C303        C308   1.391       .  A
C303        H309   1.084       .  S
C304        C305   1.398       .  A
C305        C306   1.397       .  A
C305        H310   1.083       .  S
C306        C307   1.408       .  A
C306        H311   1.083       .  S
C307        C308   1.398       .  A
C308        H312   1.084       .  S
C313        C314   1.530       .  S
C313        C319   1.522       .  S
C313        C317   1.542       .  S
C313        C606   1.520       .  S
C314        H321   1.086       .  S
C314        C315   1.367       .  D
C315        C316   1.545       .  S
C315        C596   1.479       .  S
C316        C320   1.543       .  S
C316        C318   1.546       .  S
C316        H322   1.109       .  S
C317        H323   1.079       .  S
C317        C318   1.373       .  D
C318        C586   1.493       .  S
C319        H324   1.087       .  S
C319        C320   1.355       .  D
C320        C616   1.479       .  S
O325        C327   1.288       .  A
O326        C327   1.291       .  A
O326       Zr363   2.452       .  S
C327        C579   1.451       .  S
O328        C330   1.281       .  A
O328       Zr340   2.405       .  S
O329        C330   1.289       .  A
O329       Zr364   2.433       .  S
C330        C609   1.463       .  S
O331        C333   1.282       .  A
O332        C333   1.292       .  A
O332       Zr363   2.446       .  S
C333        C619   1.473       .  S
O334        C336   1.291       .  A
O334       Zr337   2.459       .  S
O335        C336   1.288       .  A
O335       Zr364   2.435       .  S
C336        C582   1.446       .  S
Zr337       O338   2.433   1_565  S
Zr337       O339   2.438       .  S
Zr337       O344   2.371       .  S
Zr337       O367   2.372       .  S
O339        H384   0.990       .  S
Zr340       O342   2.433   1_565  S
Zr340       O344   2.367       .  S
Zr340       O370   2.373       .  S
O343       Zr363   2.381       .  S
O344       Zr364   2.390       .  S
O344        H371   0.967       .  S
O345        C347   1.280       .  A
O345       Zr357   2.408       .  S
O346        C347   1.290       .  A
O346       Zr364   2.433       .  S
C347        C558   1.468       .  S
O348        C350   1.290       .  A
O349        C350   1.289       .  A
O349       Zr363   2.441       .  S
C350        C583   1.447       .  S
O351        C353   1.289       .  A
O351       Zr360   2.453       .  S
O352        C353   1.292       .  A
O352       Zr364   2.454       .  S
C353        C577   1.453       .  S
O354        C356   1.280       .  A
O355        C356   1.290       .  A
O355       Zr363   2.440       .  S
C356        C568   1.457       .  S
Zr357       O358   2.437       .  S
Zr357       O359   2.435       .  S
Zr357       O365   2.361       .  S
Zr357       O367   2.365       .  S
O358        H378   0.990       .  S
O358        H383   0.990       .  S
O359        H379   0.990       .  S
Zr360       O361   2.432       .  S
Zr360       O362   2.435       .  S
Zr360       O365   2.371       .  S
Zr360       O370   2.377       .  S
O362        H376   0.990       .  S
O362        H386   0.990       .  S
Zr363       O366   2.386       .  S
Zr363       O368   2.388       .  S
Zr363       O369   2.388       .  S
Zr364       O365   2.385       .  S
Zr364       O367   2.383       .  S
Zr364       O370   2.388       .  S
O365        H373   0.966       .  S
O368        H372   0.965       .  S
O369        H374   0.965       .  S
N387        H419   1.038       .  S
N387       C1016   1.356   1_455  A
N387        C391   1.355       .  A
N388        C395   1.355       .  A
N388        C396   1.356       .  A
N389        H420   1.038       .  S
N389       C1018   1.357   1_455  A
N389        C393   1.357       .  A
N390        C397   1.355       .  A
N390        C398   1.354       .  A
C391        C399   1.388       .  A
C391        C407   1.419       .  A
C392       N1011   1.359       .  A
C392        C408   1.424       .  A
C392        C400   1.388       .  A
C393        C401   1.388       .  A
C393        C410   1.421       .  A
C394       N1013   1.357       .  A
C394        C409   1.422       .  A
C394        C402   1.388       .  A
C395        C407   1.418       .  A
C395        C403   1.387       .  A
C396        C410   1.418       .  A
C396        C404   1.386       .  A
C397        C405   1.387       .  A
C397        C408   1.418       .  A
C398        C406   1.388       .  A
C398        C409   1.420       .  A
C399       C1024   1.379   1_455  A
C399        H411   1.082       .  S
C400       C1023   1.379       .  A
C400        H412   1.082       .  S
C401       C1026   1.380   1_455  A
C401        H413   1.082       .  S
C402       C1025   1.377       .  A
C402        H414   1.082       .  S
C403        C404   1.375       .  A
C403        H415   1.082       .  S
C404        H416   1.082       .  S
C405        C406   1.375       .  A
C405        H417   1.082       .  S
C406        H418   1.083       .  S
C407        C581   1.461       .  S
C408        C578   1.468       .  S
C409        C584   1.462       .  S
C410        C580   1.466       .  S
C421        C422   1.537       .  S
C421        C427   1.519       .  S
C421        C425   1.539       .  S
C421        C571   1.516       .  S
C422        H429   1.086       .  S
C422        C423   1.364       .  D
C423        C424   1.534       .  S
C423        C551   1.468       .  S
C424        C428   1.544       .  S
C424        C426   1.546       .  S
C424        H430   1.110       .  S
C425        H431   1.082       .  S
C425        C426   1.374       .  D
C426        C538   1.486       .  S
C427        H432   1.087       .  S
C427        C428   1.355       .  D
C428        C561   1.479       .  S
N433        H465   1.035   1_554  S
N433        C438   1.353       .  A
N433        C437   1.355       .  A
N434        C441   1.356       .  A
N435        H466   1.039       .  S
N435        C440   1.356   1_556  A
N435        C439   1.355   1_556  A
N436        C443   1.355       .  A
C437        C445   1.388       .  A
C437        C453   1.416       .  A
C438        C454   1.416       .  A
C438        C446   1.389       .  A
C439        C447   1.388       .  A
C439        C456   1.415       .  A
C440        C455   1.416   1_554  A
C440        C448   1.387       .  A
C441        C453   1.420       .  A
C441        C449   1.386   1_554  A
C442        C456   1.419   1_556  A
C442        C450   1.387       .  A
C443        C451   1.387   1_554  A
C443        C454   1.421       .  A
C444        C452   1.386       .  A
C444        C455   1.419       .  A
C445        C446   1.373       .  A
C445        H457   1.082       .  S
C446        H458   1.082       .  S
C447        C448   1.374       .  A
C447        H459   1.082       .  S
C448        H460   1.082       .  S
C449        H461   1.082       .  S
C450        H462   1.082       .  S
C451        H463   1.082       .  S
C452        H464   1.082       .  S
C453        C534   1.460       .  S
C454        C531   1.456       .  S
C455        C536   1.463       .  S
C456        C529   1.460       .  S
O467        C469   1.286       .  A
O467       Zr479   2.425       .  S
O468        C469   1.289       .  A
O468       Zr505   2.429       .  S
C469        C599   1.481       .  S
O470        C472   1.286       .  A
O470      Zr1106   2.439       .  S
O471        C472   1.291       .  A
O471       Zr506   2.452       .  S
C472        C533   1.444       .  S
O473        C475   1.284       .  A
O473       Zr482   2.429       .  S
O474        C475   1.292       .  A
O474       Zr505   2.454   1_554  S
C475        C532   1.440       .  S
O476        C478   1.286       .  A
O476      Zr1103   2.426       .  S
O477        C478   1.287       .  A
O477       Zr506   2.428   1_556  S
C478        C589   1.468       .  S
Zr479      O1100   2.423   1_455  S
Zr479       O480   2.434       .  S
Zr479      O1105   2.434       .  S
Zr479       O485   2.366       .  S
Zr479      O1110   2.368   1_455  S
Zr479      O1133   2.369   1_455  S
Zr479       O511   2.365       .  S
O480        H523   0.990       .  S
O481      Zr1103   2.435       .  S
O481       H1146   0.990       .  S
O481       H1150   0.990       .  S
Zr482      O1094   2.437   1_455  S
Zr482       O483   2.437   1_554  S
Zr482       O484   2.434       .  S
Zr482      O1110   2.367   1_454  S
Zr482       O485   2.373   1_554  S
Zr482       O510   2.370       .  S
Zr482      O1136   2.371   1_455  S
O483       H1148   0.990   1_455  S
O483        H527   0.990       .  S
O484        H517   0.990   1_455  S
O485       Zr505   2.384       .  S
O486      Zr1103   2.369       .  S
O486      Zr1106   2.367   1_556  S
O486       Zr506   2.389   1_556  S
O486        H513   0.965       .  S
O487        C489   1.284       .  A
O487      Zr1123   2.431   1_554  S
O488        C489   1.292       .  A
O488       Zr506   2.459       .  S
C489        C530   1.445       .  S
O490        C492   1.288       .  A
O490       Zr502   2.438       .  S
O491        C492   1.287       .  A
O491       Zr505   2.422   1_554  S
C492        C548   1.481       .  S
O493        C495   1.288       .  A
O493      Zr1126   2.437       .  S
O494        C495   1.289       .  A
O494       Zr506   2.431       .  S
C495        C541   1.482       .  S
O496        C498   1.286       .  A
O496       Zr499   2.440   1_556  S
O497        C498   1.292       .  A
O497       Zr505   2.457       .  S
C498        C535   1.448       .  S
Zr499      O1111   2.438   1_454  S
Zr499       O500   2.435       .  S
Zr499       O501   2.433   1_554  S
Zr499      O1131   2.368   1_455  S
Zr499       O508   2.369       .  S
Zr499       O511   2.371   1_554  S
Zr499      O1133   2.374   1_454  S
O500       H1144   0.990   1_455  S
O500        H525   0.990       .  S
O501       H1145   0.990       .  S
Zr502      O1117   2.434   1_455  S
Zr502       O503   2.434       .  S
Zr502       O504   2.435       .  S
Zr502       O508   2.369       .  S
Zr502      O1131   2.370   1_455  S
Zr502      O1136   2.370   1_455  S
Zr502       O510   2.366       .  S
O503        H519   0.990       .  S
O504       H1142   0.990   1_455  S
O504        H528   0.990       .  S
Zr505       O508   2.385   1_556  S
Zr505       O510   2.391   1_556  S
Zr505       O511   2.384       .  S
Zr506       O507   2.387       .  S
Zr506       O509   2.388   1_554  S
Zr506       O512   2.386       .  S
O507      Zr1123   2.370   1_554  S
O507      Zr1126   2.372       .  S
O507        H515   0.967       .  S
O509      Zr1103   2.371       .  S
O509      Zr1123   2.372       .  S
O510        H514   0.965       .  S
O511        H516   0.966       .  S
O512      Zr1106   2.373       .  S
O512      Zr1126   2.365       .  S
H518       O1128   0.990       .  S
H520       O1124   0.990       .  S
H521       O1125   0.990       .  S
H522       O1105   0.990       .  S
H524       O1107   0.990       .  S
H526       O1105   0.990   1_655  S
C529        C530   1.212       .  T
C531        C532   1.210       .  T
C533        C534   1.212       .  T
C535        C536   1.214       .  T
C537        C538   1.406       .  A
C537        C542   1.402       .  A
C537        H543   1.081       .  S
C538        C539   1.403       .  A
C539        C540   1.395       .  A
C539        H544   1.083       .  S
C540        C541   1.406       .  A
C540        H545   1.083       .  S
C541        C542   1.406       .  A
C542        H546   1.083       .  S
C547        C548   1.409       .  A
C547        C552   1.395       .  A
C547        H553   1.083       .  S
C548        C549   1.407       .  A
C549        C550   1.398       .  A
C549        H554   1.083       .  S
C550        C551   1.401       .  A
C550        H555   1.082       .  S
C551        C552   1.397       .  A
C552        H556   1.083       .  S
C557        C558   1.410       .  A
C557        C562   1.399       .  A
C557        H563   1.083       .  S
C558        C559   1.396       .  A
C559        C560   1.389       .  A
C559        H564   1.084       .  S
C560        C561   1.411       .  A
C560        H565   1.083       .  S
C561        C562   1.399       .  A
C562        H566   1.083       .  S
C567        C568   1.401       .  A
C567        C572   1.398       .  A
C567        H573   1.083       .  S
C568        C569   1.395       .  A
C569        C570   1.390       .  A
C569        H574   1.084       .  S
C570        C571   1.412       .  A
C570        H575   1.084       .  S
C571        C572   1.408       .  A
C572        H576   1.078       .  S
C577        C578   1.217       .  T
C579        C580   1.216       .  T
C581        C582   1.213       .  T
C583        C584   1.213       .  T
C585        C586   1.409       .  A
C585        C590   1.398       .  A
C585        H591   1.077       .  S
C586        C587   1.408       .  A
C587        C588   1.393       .  A
C587        H592   1.081       .  S
C588        C589   1.401       .  A
C588        H593   1.084       .  S
C589        C590   1.399       .  A
C590        H594   1.083       .  S
C595        C596   1.401       .  A
C595        C600   1.397       .  A
C595        H601   1.083       .  S
C596        C597   1.402       .  A
C597        C598   1.396       .  A
C597        H602   1.076       .  S
C598        C599   1.404       .  A
C598        H603   1.083       .  S
C599        C600   1.409       .  A
C600        H604   1.083       .  S
C605        C606   1.407       .  A
C605        C610   1.393       .  A
C605        H611   1.077       .  S
C606        C607   1.412       .  A
C607        C608   1.393       .  A
C607        H612   1.083       .  S
C608        C609   1.397       .  A
C608        H613   1.083       .  S
C609        C610   1.403       .  A
C610        H614   1.084       .  S
C615        C616   1.408       .  A
C615        C620   1.392       .  A
C615        H621   1.083       .  S
C616        C617   1.401       .  A
C617        C618   1.402       .  A
C617        H622   1.083       .  S
C618        C619   1.410       .  A
C618        H623   1.083       .  S
C619        C620   1.398       .  A
C620        H624   1.083       .  S
C625        C626   1.528       .  S
C625        C631   1.520       .  S
C625        C629   1.544       .  S
C625        C918   1.520       .  S
C626        H633   1.086       .  S
C626        C627   1.367       .  D
C627        C628   1.549       .  S
C627        C908   1.485       .  S
C628        C632   1.544       .  S
C628        C630   1.546       .  S
C628        H634   1.109       .  S
C629        H635   1.080       .  S
C629        C630   1.375       .  D
C630        C898   1.496       .  S
C631        H636   1.087       .  S
C631        C632   1.354       .  D
C632        C928   1.477       .  S
O637        C639   1.288       .  A
O637       Zr961   2.450   1_545  S
O638        C639   1.290       .  A
O638       Zr675   2.443       .  S
C639        C891   1.447       .  S
O640        C642   1.281       .  A
O640       Zr652   2.404       .  S
O641        C642   1.290       .  A
O641       Zr676   2.443       .  S
C642        C921   1.467       .  S
O643        C645   1.282       .  A
O643       Zr964   2.412   1_545  S
O644        C645   1.290       .  A
O644       Zr675   2.436       .  S
C645        C931   1.467       .  S
O646        C648   1.290       .  A
O646       Zr649   2.457       .  S
O647        C648   1.288       .  A
O647       Zr676   2.436       .  S
C648        C894   1.445       .  S
Zr649       O949   2.452       .  S
Zr649       O650   2.434       .  S
Zr649       O651   2.435       .  S
Zr649       O967   2.374       .  S
Zr649       O656   2.369       .  S
Zr649       O679   2.371       .  S
Zr649       O993   2.373       .  S
O650       H1005   0.990       .  S
O651       H1004   0.990       .  S
O651        H696   0.990       .  S
Zr652       O955   2.407       .  S
Zr652       O965   2.438       .  S
Zr652       O654   2.434       .  S
Zr652       O656   2.363       .  S
Zr652       O967   2.367       .  S
Zr652       O992   2.365       .  S
Zr652       O682   2.370       .  S
O653       Zr964   2.436   1_545  S
O653       H1006   0.990   1_545  S
O653       H1009   0.990   1_545  S
O654        H999   0.990       .  S
O655       Zr961   2.376   1_545  S
O655       Zr964   2.366   1_545  S
O655       Zr675   2.383       .  S
O656       Zr676   2.382       .  S
O656        H683   0.967       .  S
O657        C659   1.282       .  A
O657       Zr669   2.412       .  S
O658        C659   1.290       .  A
O658       Zr676   2.433       .  S
C659        C870   1.468       .  S
O660        C662   1.289       .  A
O660       Zr984   2.454   1_545  S
O661        C662   1.289       .  A
O661       Zr675   2.441       .  S
C662        C895   1.446       .  S
O663        C665   1.289       .  A
O663       Zr672   2.452       .  S
O664        C665   1.290       .  A
O664       Zr676   2.446       .  S
C665        C889   1.447       .  S
O666        C668   1.279       .  A
O666       Zr981   2.401   1_545  S
O667        C668   1.289       .  A
O667       Zr675   2.435       .  S
C668        C880   1.452       .  S
Zr669       O978   2.403       .  S
Zr669       O670   2.436       .  S
Zr669       O671   2.435       .  S
Zr669       O677   2.363       .  S
Zr669       O990   2.366       .  S
Zr669       O993   2.369       .  S
Zr669       O679   2.367       .  S
O670        H690   0.990       .  S
O670        H695   0.990       .  S
O671        H691   0.990       .  S
Zr672       O972   2.460       .  S
Zr672       O673   2.435       .  S
Zr672       O674   2.432       .  S
Zr672       O990   2.369       .  S
Zr672       O677   2.373       .  S
Zr672       O682   2.379       .  S
Zr672       O992   2.368       .  S
O673       H1001   0.990       .  S
O674        H688   0.990       .  S
O674        H698   0.990       .  S
Zr675       O678   2.383       .  S
Zr675       O680   2.385       .  S
Zr675       O681   2.389       .  S
Zr676       O677   2.390       .  S
Zr676       O679   2.380       .  S
Zr676       O682   2.387       .  S
O677        H685   0.966       .  S
O678       Zr981   2.367   1_545  S
O678       Zr984   2.369   1_545  S
O680       Zr964   2.363   1_545  S
O680       Zr984   2.372   1_545  S
O680        H684   0.965       .  S
O681       Zr961   2.373   1_545  S
O681       Zr981   2.369   1_545  S
O681        H686   0.965       .  S
H687        O966   0.990       .  S
H689        O985   0.990       .  S
H692        O963   0.990   1_545  S
H693        O962   0.990       .  S
H694        O965   0.990       .  S
H697        O965   0.990       .  S
N699        H731   1.039       .  S
N699        C703   1.357       .  A
N700        C707   1.353       .  A
N700        C708   1.353       .  A
N701        H732   1.038       .  S
N701        C705   1.357       .  A
N702        C709   1.355       .  A
N702        C710   1.354       .  A
C703        C711   1.387       .  A
C703        C719   1.420       .  A
C704        C720   1.420       .  A
C704        C712   1.387       .  A
C705        C713   1.388       .  A
C705        C722   1.421       .  A
C706        C721   1.420       .  A
C706        C714   1.387       .  A
C707        C719   1.416       .  A
C707        C715   1.388       .  A
C708        C722   1.415       .  A
C708        C716   1.387       .  A
C709        C717   1.386       .  A
C709        C720   1.416       .  A
C710        C718   1.387       .  A
C710        C721   1.417       .  A
C711        H723   1.082       .  S
C712        H724   1.082       .  S
C713        H725   1.082       .  S
C714        H726   1.082       .  S
C715        C716   1.375       .  A
C715        H727   1.083       .  S
C716        H728   1.082       .  S
C717        C718   1.373       .  A
C717        H729   1.082       .  S
C718        H730   1.082       .  S
C719        C893   1.460       .  S
C720        C890   1.462       .  S
C721        C896   1.461       .  S
C722        C892   1.462       .  S
C733        C734   1.536       .  S
C733        C739   1.519       .  S
C733        C737   1.538       .  S
C733        C883   1.512       .  S
C734        H741   1.086       .  S
C734        C735   1.364       .  D
C735        C736   1.535       .  S
C735        C863   1.467       .  S
C736        C740   1.542       .  S
C736        C738   1.545       .  S
C736        H742   1.110       .  S
C737        H743   1.082       .  S
C737        C738   1.373       .  D
C738        C850   1.482       .  S
C739        H744   1.088       .  S
C739        C740   1.353       .  D
C740        C873   1.477       .  S
N745        H777   1.037       .  S
N745        C750   1.356   1_554  A
N745        C749   1.355   1_554  A
N746        C753   1.355       .  A
N746       C1066   1.356       .  A
N747        H778   1.038   1_554  S
N747        C752   1.354       .  A
N747        C751   1.354       .  A
N748        C755   1.355       .  A
N748       C1068   1.354       .  A
C749        C757   1.388       .  A
C749        C765   1.417   1_556  A
C750        C766   1.417   1_556  A
C750        C758   1.387       .  A
C751        C759   1.388       .  A
C751        C768   1.415       .  A
C752        C767   1.416       .  A
C752        C760   1.389       .  A
C753        C765   1.420       .  A
C753        C761   1.387       .  A
C754       N1058   1.355   1_545  A
C754        C768   1.419       .  A
C754        C762   1.386   1_554  A
C755        C763   1.387       .  A
C755        C766   1.419       .  A
C756       N1060   1.354   1_546  A
C756        C764   1.387       .  A
C756        C767   1.419   1_556  A
C757        C758   1.373       .  A
C757        H769   1.082       .  S
C758        H770   1.082       .  S
C759        C760   1.375       .  A
C759        H771   1.082       .  S
C760        H772   1.083       .  S
C761       C1074   1.378       .  A
C761        H773   1.082       .  S
C762       C1073   1.379   1_545  A
C762        H774   1.082       .  S
C763       C1076   1.378       .  A
C763        H775   1.083       .  S
C764       C1075   1.379   1_545  A
C764        H776   1.082       .  S
C765        C846   1.461       .  S
C766        C843   1.461       .  S
C767        C848   1.458   1_554  S
C768        C841   1.461       .  S
O779        C781   1.286       .  A
O779       Zr791   2.427       .  S
O780        C781   1.290       .  A
O780       Zr817   2.435       .  S
C781        C911   1.482       .  S
O782        C784   1.286       .  A
O783        C784   1.291       .  A
O783       Zr818   2.450       .  S
C784        C845   1.445       .  S
O785        C787   1.284   1_554  A
O785       Zr794   2.430       .  S
O786        C787   1.293       .  A
O786       Zr817   2.461       .  S
C787        C844   1.445       .  S
O788        C790   1.286       .  A
O789        C790   1.289       .  A
O789       Zr818   2.436   1_556  S
C790        C901   1.471       .  S
Zr791       O792   2.435       .  S
Zr791       O797   2.370       .  S
Zr791       O823   2.368       .  S
O792        H835   0.990       .  S
Zr794       O795   2.436   1_554  S
Zr794       O796   2.436       .  S
Zr794       O797   2.371   1_554  S
Zr794       O822   2.373       .  S
O795        H839   0.990       .  S
O796        H829   0.990       .  S
O797       Zr817   2.384       .  S
O798       Zr818   2.386   1_556  S
O798        H825   0.965       .  S
O799        C801   1.285       .  A
O800        C801   1.292       .  A
O800       Zr818   2.455       .  S
C801        C842   1.446       .  S
O802        C804   1.288       .  A
O802       Zr814   2.434       .  S
O803        C804   1.288       .  A
O803       Zr817   2.428   1_554  S
C804        C860   1.483       .  S
O805        C807   1.287       .  A
O806        C807   1.288       .  A
O806       Zr818   2.427       .  S
C807        C853   1.477       .  S
O808        C810   1.284       .  A
O808       Zr811   2.429       .  S
O809        C810   1.292   1_556  A
O809       Zr817   2.456       .  S
C810        C847   1.444       .  S
Zr811       O812   2.435       .  S
Zr811       O813   2.435   1_554  S
Zr811       O820   2.368       .  S
Zr811       O823   2.371   1_554  S
O812        H837   0.990       .  S
Zr814       O815   2.433       .  S
Zr814       O816   2.435       .  S
Zr814       O820   2.366       .  S
Zr814       O822   2.365       .  S
O815        H831   0.990       .  S
O816        H840   0.990       .  S
Zr817       O820   2.382   1_556  S
Zr817       O822   2.392   1_556  S
Zr817       O823   2.388       .  S
Zr818       O819   2.388       .  S
Zr818       O821   2.385   1_554  S
Zr818       O824   2.390       .  S
O819        H827   0.967       .  S
O822        H826   0.965       .  S
O823        H828   0.966       .  S
C841        C842   1.213       .  T
C843        C844   1.213   1_554  T
C845        C846   1.213       .  T
C847        C848   1.212   1_554  T
C849        C850   1.405       .  A
C849        C854   1.398       .  A
C849        H855   1.081       .  S
C850        C851   1.403       .  A
C851        C852   1.393       .  A
C851        H856   1.083       .  S
C852        C853   1.406       .  A
C852        H857   1.083       .  S
C853        C854   1.405       .  A
C854        H858   1.083       .  S
C859        C860   1.409       .  A
C859        C864   1.394       .  A
C859        H865   1.083       .  S
C860        C861   1.408       .  A
C861        C862   1.399       .  A
C861        H866   1.083       .  S
C862        C863   1.401       .  A
C862        H867   1.082       .  S
C863        C864   1.396       .  A
C864        H868   1.084       .  S
C869        C870   1.409       .  A
C869        C874   1.399       .  A
C869        H875   1.083       .  S
C870        C871   1.397       .  A
C871        C872   1.389       .  A
C871        H876   1.084       .  S
C872        C873   1.410       .  A
C872        H877   1.083       .  S
C873        C874   1.398       .  A
C874        H878   1.083       .  S
C879        C880   1.401       .  A
C879        C884   1.396       .  A
C879        H885   1.083       .  S
C880        C881   1.394       .  A
C881        C882   1.388       .  A
C881        H886   1.084       .  S
C882        C883   1.411       .  A
C882        H887   1.084       .  S
C883        C884   1.407       .  A
C884        H888   1.078       .  S
C889        C890   1.214       .  T
C891        C892   1.213       .  T
C893        C894   1.212       .  T
C895        C896   1.213       .  T
C897        C898   1.410       .  A
C897        C902   1.401       .  A
C897        H903   1.075       .  S
C898        C899   1.407       .  A
C899        C900   1.393       .  A
C899        H904   1.081       .  S
C900        C901   1.402       .  A
C900        H905   1.084       .  S
C901        C902   1.400       .  A
C902        H906   1.083       .  S
C907        C908   1.404       .  A
C907        C912   1.398       .  A
C907        H913   1.083       .  S
C908        C909   1.402       .  A
C909        C910   1.396       .  A
C909        H914   1.074       .  S
C910        C911   1.403       .  A
C910        H915   1.083       .  S
C911        C912   1.409       .  A
C912        H916   1.083       .  S
C917        C918   1.405       .  A
C917        C922   1.393       .  A
C917        H923   1.077       .  S
C918        C919   1.414       .  A
C919        C920   1.395       .  A
C919        H924   1.084       .  S
C920        C921   1.398       .  A
C920        H925   1.083       .  S
C921        C922   1.404       .  A
C922        H926   1.083       .  S
C927        C928   1.408       .  A
C927        C932   1.391       .  A
C927        H933   1.083       .  S
C928        C929   1.400       .  A
C929        C930   1.400       .  A
C929        H934   1.083       .  S
C930        C931   1.408       .  A
C930        H935   1.083       .  S
C931        C932   1.398       .  A
C932        H936   1.084       .  S
C937        C938   1.528       .  S
C937        C943   1.519       .  S
C937        C941   1.544       .  S
C937       C1230   1.520       .  S
C938        H945   1.086       .  S
C938        C939   1.367       .  D
C939        C940   1.549       .  S
C939       C1220   1.484       .  S
C940        C944   1.543       .  S
C940        C942   1.543       .  S
C940        H946   1.109       .  S
C941        H947   1.080       .  S
C941        C942   1.375       .  D
C942       C1210   1.493       .  S
C943        H948   1.087       .  S
C943        C944   1.354       .  D
C944       C1240   1.476       .  S
O949        C951   1.289       .  A
O950        C951   1.291       .  A
O950       Zr987   2.448       .  S
C951       C1203   1.449       .  S
O952        C954   1.279       .  A
O952       Zr964   2.398       .  S
O953        C954   1.290       .  A
O953       Zr988   2.442       .  S
C954       C1233   1.464       .  S
O955        C957   1.281       .  A
O956        C957   1.291       .  A
O956       Zr987   2.438       .  S
C957       C1243   1.467       .  S
O958        C960   1.290       .  A
O958       Zr961   2.459       .  S
O959        C960   1.289       .  A
O959       Zr988   2.440       .  S
C960       C1206   1.449       .  S
Zr961       O962   2.434   1_565  S
Zr961       O963   2.436       .  S
Zr961       O968   2.374       .  S
Zr961       O991   2.369       .  S
O963       H1008   0.990       .  S
Zr964       O966   2.435       .  S
Zr964       O968   2.368       .  S
Zr964       O994   2.371       .  S
O967       Zr987   2.380       .  S
O968       Zr988   2.388       .  S
O968        H995   0.967       .  S
O969        C971   1.281       .  A
O969       Zr981   2.408       .  S
O970        C971   1.290       .  A
O970       Zr988   2.431       .  S
C971       C1182   1.467       .  S
O972        C974   1.290       .  A
O973        C974   1.289       .  A
O973       Zr987   2.441       .  S
C974       C1207   1.450       .  S
O975        C977   1.288       .  A
O975       Zr984   2.447       .  S
O976        C977   1.291       .  A
O976       Zr988   2.450       .  S
C977       C1201   1.447       .  S
O978        C980   1.280       .  A
O979        C980   1.288       .  A
O979       Zr987   2.431       .  S
C980       C1192   1.452       .  S
Zr981       O982   2.438       .  S
Zr981       O983   2.437       .  S
Zr981       O989   2.363       .  S
Zr981       O991   2.368       .  S
O982       H1002   0.990       .  S
O982       H1007   0.990       .  S
O983       H1003   0.990   1_565  S
Zr984       O985   2.434       .  S
Zr984       O986   2.434       .  S
Zr984       O989   2.371       .  S
Zr984       O994   2.377       .  S
O986       H1000   0.990       .  S
O986       H1010   0.990       .  S
Zr987       O990   2.383       .  S
Zr987       O992   2.384       .  S
Zr987       O993   2.386       .  S
Zr988       O989   2.389       .  S
Zr988       O991   2.383       .  S
Zr988       O994   2.385       .  S
O989        H997   0.966       .  S
O992        H996   0.965       .  S
O993        H998   0.965       .  S
N1011      H1043   1.038       .  S
N1011      C1015   1.358       .  A
N1012      C1019   1.354       .  A
N1012      C1020   1.355       .  A
N1013      H1044   1.036       .  S
N1013      C1017   1.357       .  A
N1014      C1021   1.355       .  A
N1014      C1022   1.354       .  A
C1015      C1023   1.387       .  A
C1015      C1031   1.423       .  A
C1016      C1032   1.420       .  A
C1016      C1024   1.388       .  A
C1017      C1025   1.388       .  A
C1017      C1034   1.422       .  A
C1018      C1033   1.421       .  A
C1018      C1026   1.388       .  A
C1019      C1031   1.418       .  A
C1019      C1027   1.388       .  A
C1020      C1034   1.418       .  A
C1020      C1028   1.387       .  A
C1021      C1029   1.386       .  A
C1021      C1032   1.416       .  A
C1022      C1030   1.387       .  A
C1022      C1033   1.418       .  A
C1023      H1035   1.082       .  S
C1024      H1036   1.083       .  S
C1025      H1037   1.082       .  S
C1026      H1038   1.082       .  S
C1027      C1028   1.374       .  A
C1027      H1039   1.082       .  S
C1028      H1040   1.082       .  S
C1029      C1030   1.375       .  A
C1029      H1041   1.082       .  S
C1030      H1042   1.082       .  S
C1031      C1205   1.464       .  S
C1032      C1202   1.462       .  S
C1033      C1208   1.463       .  S
C1034      C1204   1.464       .  S
C1045      C1046   1.537       .  S
C1045      C1051   1.519       .  S
C1045      C1049   1.537       .  S
C1045      C1195   1.512       .  S
C1046      H1053   1.086       .  S
C1046      C1047   1.363       .  D
C1047      C1048   1.533       .  S
C1047      C1175   1.467       .  S
C1048      C1052   1.543       .  S
C1048      C1050   1.547       .  S
C1048      H1054   1.110       .  S
C1049      H1055   1.082       .  S
C1049      C1050   1.372       .  D
C1050      C1162   1.482       .  S
C1051      H1056   1.087       .  S
C1051      C1052   1.355       .  D
C1052      C1185   1.478       .  S
N1057      H1089   1.039   1_554  S
N1057      C1062   1.354       .  A
N1057      C1061   1.353       .  A
N1058      C1065   1.355       .  A
N1059      H1090   1.036       .  S
N1059      C1064   1.355   1_554  A
N1059      C1063   1.356   1_554  A
N1060      C1067   1.355   1_554  A
C1061      C1069   1.388       .  A
C1061      C1077   1.414       .  A
C1062      C1078   1.415       .  A
C1062      C1070   1.388       .  A
C1063      C1071   1.388       .  A
C1063      C1080   1.417   1_556  A
C1064      C1079   1.417       .  A
C1064      C1072   1.388       .  A
C1065      C1077   1.419       .  A
C1065      C1073   1.386   1_554  A
C1066      C1080   1.421       .  A
C1066      C1074   1.387       .  A
C1067      C1075   1.386       .  A
C1067      C1078   1.419   1_556  A
C1068      C1076   1.388       .  A
C1068      C1079   1.420   1_554  A
C1069      C1070   1.376       .  A
C1069      H1081   1.083       .  S
C1070      H1082   1.082       .  S
C1071      C1072   1.373       .  A
C1071      H1083   1.082       .  S
C1072      H1084   1.082       .  S
C1073      H1085   1.082       .  S
C1074      H1086   1.082       .  S
C1075      H1087   1.082       .  S
C1076      H1088   1.083       .  S
C1077      C1158   1.459       .  S
C1078      C1155   1.461       .  S
C1079      C1160   1.458       .  S
C1080      C1153   1.462       .  S
O1091      C1093   1.286       .  A
O1091     Zr1103   2.431       .  S
O1092      C1093   1.290       .  A
O1092     Zr1129   2.437       .  S
C1093      C1223   1.484       .  S
O1094      C1096   1.285       .  A
O1095      C1096   1.292       .  A
O1095     Zr1130   2.456       .  S
C1096      C1157   1.445       .  S
O1097      C1099   1.286   1_554  A
O1097     Zr1106   2.438       .  S
O1098      C1099   1.292       .  A
O1098     Zr1129   2.458       .  S
C1099      C1156   1.447       .  S
O1100      C1102   1.285       .  A
O1101      C1102   1.288       .  A
O1101     Zr1130   2.432   1_556  S
C1102      C1213   1.469       .  S
Zr1103     O1104   2.435       .  S
Zr1103     O1109   2.372       .  S
Zr1103     O1135   2.369       .  S
O1104      H1147   0.990       .  S
Zr1106     O1107   2.436   1_554  S
Zr1106     O1108   2.436       .  S
Zr1106     O1109   2.375   1_554  S
Zr1106     O1134   2.370       .  S
O1107      H1151   0.990       .  S
O1108      H1141   0.990       .  S
O1109     Zr1129   2.387       .  S
O1110     Zr1130   2.389   1_556  S
O1110      H1137   0.966       .  S
O1111      C1113   1.285   1_556  A
O1112      C1113   1.292       .  A
O1112     Zr1130   2.455       .  S
C1113      C1154   1.447       .  S
O1114      C1116   1.287       .  A
O1114     Zr1126   2.431       .  S
O1115      C1116   1.290       .  A
O1115     Zr1129   2.434   1_554  S
C1116      C1172   1.483       .  S
O1117      C1119   1.287       .  A
O1118      C1119   1.289       .  A
O1118     Zr1130   2.431       .  S
C1119      C1165   1.481       .  S
O1120      C1122   1.284       .  A
O1120     Zr1123   2.430       .  S
O1121      C1122   1.292       .  A
O1121     Zr1129   2.455       .  S
C1122      C1159   1.443       .  S
Zr1123     O1124   2.436   1_556  S
Zr1123     O1125   2.434       .  S
Zr1123     O1132   2.369   1_556  S
Zr1123     O1135   2.371       .  S
O1124      H1149   0.990       .  S
Zr1126     O1127   2.434       .  S
Zr1126     O1128   2.434       .  S
Zr1126     O1132   2.369       .  S
Zr1126     O1134   2.366       .  S
O1127      H1143   0.990       .  S
O1128      H1152   0.990       .  S
Zr1129     O1132   2.384   1_556  S
Zr1129     O1134   2.389   1_556  S
Zr1129     O1135   2.388       .  S
Zr1130     O1131   2.389       .  S
Zr1130     O1133   2.387   1_554  S
Zr1130     O1136   2.387       .  S
O1131      H1139   0.967       .  S
O1134      H1138   0.965       .  S
O1135      H1140   0.966       .  S
C1153      C1154   1.214       .  T
C1155      C1156   1.213   1_554  T
C1157      C1158   1.212       .  T
C1159      C1160   1.211       .  T
C1161      C1162   1.405       .  A
C1161      C1166   1.400       .  A
C1161      H1167   1.081       .  S
C1162      C1163   1.403       .  A
C1163      C1164   1.394       .  A
C1163      H1168   1.083       .  S
C1164      C1165   1.407       .  A
C1164      H1169   1.083       .  S
C1165      C1166   1.405       .  A
C1166      H1170   1.083       .  S
C1171      C1172   1.410       .  A
C1171      C1176   1.396       .  A
C1171      H1177   1.083       .  S
C1172      C1173   1.407       .  A
C1173      C1174   1.399       .  A
C1173      H1178   1.083       .  S
C1174      C1175   1.400       .  A
C1174      H1179   1.083       .  S
C1175      C1176   1.397       .  A
C1176      H1180   1.084       .  S
C1181      C1182   1.409       .  A
C1181      C1186   1.399       .  A
C1181      H1187   1.083       .  S
C1182      C1183   1.396       .  A
C1183      C1184   1.387       .  A
C1183      H1188   1.084       .  S
C1184      C1185   1.410       .  A
C1184      H1189   1.083       .  S
C1185      C1186   1.399       .  A
C1186      H1190   1.083       .  S
C1191      C1192   1.401       .  A
C1191      C1196   1.397       .  A
C1191      H1197   1.083       .  S
C1192      C1193   1.393       .  A
C1193      C1194   1.387       .  A
C1193      H1198   1.084       .  S
C1194      C1195   1.411       .  A
C1194      H1199   1.084       .  S
C1195      C1196   1.408       .  A
C1196      H1200   1.078       .  S
C1201      C1202   1.213       .  T
C1203      C1204   1.214       .  T
C1205      C1206   1.215       .  T
C1207      C1208   1.215       .  T
C1209      C1210   1.409       .  A
C1209      C1214   1.400       .  A
C1209      H1215   1.076       .  S
C1210      C1211   1.406       .  A
C1211      C1212   1.391       .  A
C1211      H1216   1.081       .  S
C1212      C1213   1.402       .  A
C1212      H1217   1.084       .  S
C1213      C1214   1.400       .  A
C1214      H1218   1.083       .  S
C1219      C1220   1.403       .  A
C1219      C1224   1.398       .  A
C1219      H1225   1.083       .  S
C1220      C1221   1.402       .  A
C1221      C1222   1.397       .  A
C1221      H1226   1.074       .  S
C1222      C1223   1.404       .  A
C1222      H1227   1.083       .  S
C1223      C1224   1.409       .  A
C1224      H1228   1.083       .  S
C1229      C1230   1.405       .  A
C1229      C1234   1.393       .  A
C1229      H1235   1.077       .  S
C1230      C1231   1.413       .  A
C1231      C1232   1.394       .  A
C1231      H1236   1.084       .  S
C1232      C1233   1.396       .  A
C1232      H1237   1.083       .  S
C1233      C1234   1.404       .  A
C1234      H1238   1.084       .  S
C1239      C1240   1.409       .  A
C1239      C1244   1.389       .  A
C1239      H1245   1.083       .  S
C1240      C1241   1.399       .  A
C1241      C1242   1.399       .  A
C1241      H1246   1.083       .  S
C1242      C1243   1.409       .  A
C1242      H1247   1.083       .  S
C1243      C1244   1.397       .  A
C1244      H1248   1.084       .  S
