geometry optimzed in LAMMPS
_audit_creation_date              2020-12-01 
_audit_creation_method            'lammps2cif' 
_symmetry_space_group_name_H-M    'P1' 
_symmetry_Int_Tables_number       1 
_symmetry_cell_setting            triclinic 
loop_ 
_symmetry_equiv_pos_as_xyz 
  x,y,z 
_cell_length_a                    33.23461708 
_cell_length_b                    35.9678565916258 
_cell_length_c                    34.108589044109735 
_cell_angle_alpha                 91.35030632492546 
_cell_angle_beta                  91.22314586086911 
_cell_angle_gamma                 89.19108104399425 
loop_ 
_atom_site_label 
_atom_site_type_symbol 
_atom_site_fract_x 
_atom_site_fract_y 
_atom_site_fract_z 
_atom_site_charge 
N1          N  0.85107199  0.81712659  0.00655674    -0.01100
C2          C  0.85212121  0.80492897  0.04374915     0.01500
C3          C  0.86179458  0.76755406  0.04445082    -0.21400
C4          C  0.86674762  0.75610021  0.00619462    -0.21600
C5          C  0.85965073  0.78683871  0.98348105     0.01400
H6          H  0.86100493  0.74972226  0.06953347     0.15100
H7          H  0.87026399  0.72757451  0.99585046     0.15200
N8          N  0.75399693  0.16804790  0.99580550    -0.01100
C9          C  0.72949074  0.17305816  0.02700360     0.01500
C10         C  0.69102267  0.16161630  0.01769368    -0.21400
C11         C  0.69074954  0.15146854  0.97883638    -0.21600
C12         C  0.72909366  0.15694197  0.96560517     0.01400
H13         H  0.66455538  0.16617311  0.03524533     0.15100
H14         H  0.66391604  0.14710867  0.96083714     0.15200
N15         N  0.20540611  0.89793361  0.01733329    -0.01100
C16         C  0.22205936  0.90305765  0.05354262     0.01500
C17         C  0.26351363  0.90309038  0.05175120    -0.21400
C18         C  0.27285199  0.89715944  0.01312352    -0.21600
C19         C  0.23680157  0.89380208  0.99269479     0.01400
H20         H  0.28467370  0.90265915  0.07632664     0.15100
H21         H  0.30263522  0.89166861  0.00190117     0.15200
N22         N  0.80500560  0.03239959  0.80323991    -0.01100
C23         C  0.81324290  0.06147423  0.78020029     0.01500
C24         C  0.79854260  0.05563603  0.74250038    -0.21400
C25         C  0.78037120  0.02177934  0.74180585    -0.21600
C26         C  0.78425905  0.00821913  0.77917348     0.01400
H27         H  0.79856037  0.07510582  0.71876212     0.15100
H28         H  0.76399986  0.00928558  0.71719460     0.15200
N29         N  0.98900679  0.20327539  0.82823582    -0.01100
C30         C  0.98358269  0.24002575  0.83674902     0.01500
C31         C  0.02009636  0.25615483  0.84550970    -0.21400
C32         C  0.04866623  0.22991662  0.83545333    -0.21600
C33         C  0.02808830  0.20064941  0.81762756     0.01400
H34         H  0.02562611  0.28558353  0.84967652     0.15100
H35         H  0.07967910  0.23640056  0.83050023     0.15200
N36         N  0.97348477  0.90293810  0.78473788    -0.01100
C37         C  0.93707577  0.91157557  0.76910137     0.01500
C38         C  0.93924446  0.91396448  0.72886196    -0.21400
C39         C  0.97839708  0.90580763  0.71940852    -0.21600
C40         C  0.99862501  0.89886702  0.75422726     0.01400
H41         H  0.91415289  0.91610927  0.70823206     0.15100
H42         H  0.98957599  0.90100139  0.69011572     0.08400
N43         N  0.12989147  0.03756832  0.80287823    -0.01100
C44         C  0.12067502  0.06523042  0.77814610     0.01500
C45         C  0.12601823  0.05351711  0.73973693    -0.21400
C46         C  0.13890364  0.01701225  0.74103062    -0.21600
C47         C  0.14113616  0.00809805  0.78018060     0.01400
H48         H  0.12390451  0.07042706  0.71391412     0.15100
H49         H  0.14801930  0.99966139  0.71632791     0.15200
N50         N  0.97671152  0.81752557  0.13946026    -0.01100
C51         C  0.94054046  0.80035602  0.13701820     0.01500
C52         C  0.94418881  0.76637189  0.11773081    -0.21400
C53         C  0.98419112  0.76085899  0.11089609    -0.21600
C54         C  0.00363727  0.79169383  0.12610341     0.01400
H55         H  0.92183090  0.74475123  0.11613262     0.15100
H56         H  0.99802932  0.73433819  0.10308538     0.15200
N57         N  0.76931953  0.03681702  0.15628476    -0.01100
C58         C  0.75508897  0.07226258  0.15351333     0.01500
C59         C  0.71397603  0.07291227  0.14743891    -0.21400
C60         C  0.70193097  0.03671960  0.14653026    -0.21600
C61         C  0.73598154  0.01513608  0.15264833     0.01400
H62         H  0.69438351  0.09721555  0.14739106     0.15100
H63         H  0.67106175  0.02745904  0.14627209     0.15200
N64         N  0.98706539  0.15614591  0.23205281    -0.01100
C65         C  0.95338065  0.15798948  0.25404904     0.01500
C66         C  0.95970543  0.14146133  0.28965716    -0.21400
C67         C  0.99922950  0.13070973  0.29112015    -0.21600
C68         C  0.01598616  0.14138317  0.25652805     0.01400
H69         H  0.93967414  0.14249791  0.31430358     0.15100
H70         H  0.01546093  0.12244385  0.31745110     0.15200
Zr71       Zr  0.29719172  0.29494896  0.30384719     2.17500
O72         O  0.36435675  0.27650903  0.32686416    -0.49000
O73         O  0.29128184  0.35736833  0.33216235    -0.72200
O74         O  0.34465024  0.33731413  0.27983240    -0.79000
O75         O  0.24460002  0.25016824  0.38636091    -0.80700
O76         O  0.33007727  0.34406117  0.21481885    -0.76400
O77         O  0.29852591  0.28569933  0.37220150    -0.88000
O78         O  0.23058243  0.37931065  0.31032867    -0.74000
O79         O  0.26311470  0.32997082  0.25517108    -0.83400
O80         O  0.22847528  0.29602910  0.32243109    -0.83100
O81         O  0.31263409  0.26360706  0.24320354    -0.69900
O82         O  0.27802959  0.23102143  0.30653780    -0.82000
Zr83       Zr  0.18913102  0.23658712  0.21419092     2.26400
Zr84       Zr  0.27702275  0.29902341  0.19439679     2.06300
Zr85       Zr  0.20811829  0.23234521  0.32384809     2.10000
Zr86       Zr  0.19476070  0.33071710  0.27341944     1.78800
O87         O  0.22016311  0.17268460  0.35460162    -0.90800
O88         O  0.18397830  0.38964275  0.24082860    -0.38600
O89         O  0.17315006  0.26752360  0.27479267    -0.75300
O90         O  0.20747676  0.30053183  0.21146705    -0.94000
O91         O  0.25729364  0.23531716  0.19529182    -0.87300
O92         O  0.22211013  0.20081647  0.26316731    -0.90100
C93         C  0.26451361  0.38310729  0.32858887     1.03600
C94         C  0.27611776  0.26952188  0.39602112     1.16600
C95         C  0.34953625  0.35254661  0.24702098     1.07400
O96         O  0.26825946  0.35529016  0.15675105    -0.92300
O97         O  0.23828507  0.28585430  0.13286991    -0.88000
O98         O  0.19080138  0.24303002  0.14579511    -0.81100
C99         C  0.20933882  0.26372542  0.12286692     1.14000
O100        O  0.35873110  0.18919400  0.26939380    -0.94200
Zr101      Zr  0.29051600  0.20023079  0.24448680     1.88900
O102        O  0.19439783  0.17459797  0.18557140    -0.70900
O103        O  0.33025228  0.27760949  0.15097350    -0.50100
O104        O  0.33597560  0.19018680  0.19008558    -0.94800
O105        O  0.29771918  0.14240913  0.28005316    -0.52000
O106        O  0.25683161  0.15332604  0.20287343    -0.71400
C107        C  0.22234321  0.14979670  0.18553548     1.00900
O108        O  0.12435827  0.25776609  0.18736093    -0.60200
O109        O  0.15640905  0.24903989  0.37093971    -0.55000
O110        O  0.13587622  0.20069920  0.23641748    -0.91700
O111        O  0.14528286  0.19786600  0.30269873    -0.90100
O112        O  0.14920036  0.33896947  0.32806138    -0.90500
O113        O  0.12834422  0.33965222  0.24332372    -0.89300
C114        C  0.12571755  0.19032385  0.27001912     1.19800
H115        H  0.22489419  0.30854183  0.34749252     0.35700
H116        H  0.19188585  0.31293630  0.19131925     0.46600
H117        H  0.21199303  0.17575469  0.26358934     0.40100
H118        H  0.34125107  0.26417298  0.23892332     0.36600
H119        H  0.17385591  0.40697874  0.26146149     0.28400
H120        H  0.35374569  0.27254742  0.16844731     0.34300
H121        H  0.33740119  0.16284882  0.18612809     0.40200
H122        H  0.15559094  0.36376144  0.33956233     0.34700
H123        H  0.16587998  0.27239374  0.38377804     0.33600
H124        H  0.24807316  0.17405751  0.36522918     0.35200
H125        H  0.27360078  0.12778636  0.27263618     0.34200
H126        H  0.11027662  0.32406426  0.25852596     0.38200
H127        H  0.10786832  0.26392728  0.21052206     0.30900
H128        H  0.37511845  0.29874850  0.34093593     0.35200
H129        H  0.35944343  0.20157552  0.29562588     0.38000
H130        H  0.13290307  0.25686313  0.35466653     0.30600
H131        H  0.12951661  0.28219079  0.17580777     0.43500
H132        H  0.24275653  0.36650706  0.16617862     0.33600
H133        H  0.21134943  0.39848375  0.23540407     0.41200
H134        H  0.29357699  0.14979210  0.30783267     0.33000
H135        H  0.32152101  0.25273992  0.14138469     0.33100
H136        H  0.38063350  0.27398757  0.30294414     0.33400
N137        N  0.19337522  0.01778579  0.15926896    -0.01100
C138        C  0.21816627  0.04411906  0.14613036     0.01500
C139        C  0.25660606  0.03001278  0.14165694    -0.21400
C140        C  0.25588821  0.99380533  0.15321876    -0.21600
C141        C  0.21714486  0.98716067  0.16482058     0.01400
H142        H  0.28331864  0.04560848  0.13563979     0.15100
H143        H  0.28206270  0.97607666  0.15797493     0.15200
Zr144      Zr  0.28348553  0.73017074  0.28762519     2.17500
O145        O  0.34515465  0.70382075  0.26031867    -0.49000
O146        O  0.28012074  0.69792692  0.34845925    -0.72200
O147        O  0.33790313  0.75069164  0.32915584    -0.79000
O148        O  0.21016515  0.65774922  0.25806783    -0.80700
O149        O  0.33348314  0.81398875  0.33276373    -0.76400
O150        O  0.27605567  0.66495480  0.27650065    -0.88000
O151        O  0.22504144  0.72291834  0.37838630    -0.74000
O152        O  0.26311984  0.78147320  0.32799255    -0.83400
O153        O  0.21364733  0.72202958  0.29934597    -0.83100
O154        O  0.29959796  0.78477849  0.25258875    -0.69900
O155        O  0.25156338  0.72585296  0.22419925    -0.82000
Zr156      Zr  0.17463235  0.82429456  0.24177021     2.26400
Zr157      Zr  0.27567955  0.83633628  0.29251922     2.06300
Zr158      Zr  0.18132113  0.71878229  0.23649881     2.10000
Zr159      Zr  0.19420372  0.77279077  0.34025035     1.78800
O160        O  0.18256530  0.68002700  0.17702589    -0.90800
O161        O  0.21614649  0.80282343  0.40167707    -0.38600
O162        O  0.15921586  0.77013359  0.27774551    -0.75300
O163        O  0.20572287  0.82878512  0.30563224    -0.94000
O164        O  0.24398328  0.83202341  0.22967889    -0.87300
O165        O  0.19612516  0.77321784  0.20112550    -0.90100
C166        C  0.25483695  0.69983669  0.37613628     1.03600
C167        C  0.24470242  0.64537337  0.27111161     1.16600
C168        C  0.34967822  0.78242371  0.34184940     1.07400
O169        O  0.26298926  0.87738813  0.34876722    -0.92300
O170        O  0.25270667  0.89121795  0.25424348    -0.88000
O171        O  0.18478057  0.88944752  0.25213446    -0.81100
C172        C  0.21775816  0.90512570  0.24487295     1.14000
O173        O  0.32135217  0.74075117  0.17013343    -0.94200
Zr174      Zr  0.26557690  0.78131385  0.18993002     1.88900
O175        O  0.17933868  0.85381304  0.17897513    -0.70900
O176        O  0.33443113  0.87431466  0.28186723    -0.50100
O177        O  0.32137487  0.82102116  0.17379162    -0.94800
O178        O  0.25152284  0.74947495  0.12728220    -0.52000
O179        O  0.23397870  0.82816539  0.14879780    -0.71400
C180        C  0.20387508  0.85087465  0.15060517     1.00900
O181        O  0.11277237  0.85208997  0.26722060    -0.60200
O182        O  0.12270189  0.68646320  0.25944192    -0.55000
O183        O  0.11689798  0.80471987  0.20535123    -0.91700
O184        O  0.12104195  0.74149605  0.19924050    -0.90100
O185        O  0.13529831  0.73900951  0.36007044    -0.90500
O186        O  0.14311727  0.81247829  0.37064218    -0.89300
C187        C  0.10443286  0.77349488  0.19218666     1.19800
H188        H  0.20802218  0.69951133  0.31288717     0.35700
H189        H  0.19510624  0.85007623  0.32003866     0.46600
H190        H  0.18244811  0.77317100  0.17591576     0.40100
H191        H  0.32835453  0.78634939  0.24930615     0.36600
H192        H  0.20763629  0.78593247  0.42236542     0.28400
H193        H  0.34128228  0.88541561  0.30796588     0.34300
H194        H  0.31740101  0.82607940  0.14555712     0.40200
H195        H  0.12860037  0.72248149  0.33734140     0.34700
H196        H  0.11912875  0.66534929  0.24059970     0.33600
H197        H  0.15394001  0.67729586  0.16897406     0.35200
H198        H  0.22485833  0.75902338  0.11841139     0.34200
H199        H  0.12339539  0.81766994  0.34925019     0.38200
H200        H  0.09648310  0.83078878  0.27515774     0.30900
H201        H  0.35649435  0.68769152  0.28105726     0.35200
H202        H  0.33363356  0.75287994  0.14763857     0.38000
H203        H  0.13197536  0.67476216  0.28407305     0.30600
H204        H  0.12094024  0.86441815  0.29234433     0.43500
H205        H  0.26055683  0.90250346  0.33761488     0.33600
H206        H  0.24587862  0.80068744  0.40200094     0.41200
H207        H  0.24657852  0.72337825  0.13424342     0.33000
H208        H  0.35665039  0.85644434  0.27636719     0.33100
H209        H  0.36403739  0.72481291  0.25941372     0.33400
Zr210      Zr  0.78563010  0.26681413  0.19954142     2.17500
O211        O  0.83535728  0.29126712  0.15572187    -0.49000
O212        O  0.79041195  0.20035973  0.18619864    -0.72200
O213        O  0.84907770  0.24279071  0.22155152    -0.79000
O214        O  0.69875322  0.26600116  0.12818868    -0.80700
O215        O  0.85007711  0.24942861  0.28824880    -0.76400
O216        O  0.76581116  0.25187452  0.13350653    -0.88000
O217        O  0.74380546  0.17463297  0.22483277    -0.74000
O218        O  0.77721824  0.24205849  0.26275875    -0.83400
O219        O  0.71733265  0.24789531  0.20166041    -0.83100
O220        O  0.80416780  0.31560947  0.24533142    -0.69900
O221        O  0.74670149  0.32175886  0.18572468    -0.82000
Zr222      Zr  0.68528365  0.32535640  0.29684238     2.26400
Zr223      Zr  0.79342438  0.29076389  0.30891662     2.06300
Zr224      Zr  0.67796981  0.30240718  0.18796202     2.10000
Zr225      Zr  0.70955543  0.22278122  0.26412964     1.78800
O226        O  0.67414489  0.34704031  0.13542476    -0.90800
O227        O  0.73555919  0.17979889  0.31288269    -0.38600
O228        O  0.66745167  0.27635401  0.25128292    -0.75300
O229        O  0.72470170  0.27102190  0.31180249    -0.94000
O230        O  0.75322873  0.34439075  0.29595728    -0.87300
O231        O  0.69480306  0.35105495  0.23411017    -0.90100
C232        C  0.77131111  0.17254647  0.19889368     1.03600
C233        C  0.73184526  0.25085449  0.11549784     1.16600
C234        C  0.86425450  0.23667680  0.25541710     1.07400
O235        O  0.80452569  0.25135806  0.36532368    -0.92300
O236        O  0.77287039  0.32923073  0.36721572    -0.88000
O237        O  0.70521229  0.34021527  0.36292178    -0.81100
C238        C  0.73931825  0.34285225  0.38046802     1.14000
O239        O  0.81146792  0.38348251  0.18365792    -0.94200
Zr240      Zr  0.76284601  0.36972214  0.23365626     1.88900
O241        O  0.68359415  0.39100837  0.31246565    -0.70900
O242        O  0.85418539  0.32598760  0.32360626    -0.50100
O243        O  0.82157630  0.40141236  0.26146875    -0.94800
O244        O  0.73468122  0.41658723  0.19001042    -0.52000
O245        O  0.73438329  0.41665204  0.27895003    -0.71400
C246        C  0.70580199  0.41822060  0.30387493     1.00900
O247        O  0.63269435  0.30344630  0.33890492    -0.60200
O248        O  0.61587667  0.27368460  0.16417156    -0.55000
O249        O  0.62109621  0.34852137  0.27572639    -0.91700
O250        O  0.61688237  0.33784040  0.20961792    -0.90100
O251        O  0.65720720  0.18592664  0.23157337    -0.90500
O252        O  0.65821837  0.20501150  0.30965706    -0.89300
C253        C  0.60342930  0.35145507  0.24243085     1.19800
H254        H  0.71128065  0.22783280  0.18334708     0.35700
H255        H  0.71897966  0.26278140  0.33781763     0.46600
H256        H  0.67821018  0.37293811  0.23025455     0.40100
H257        H  0.83222748  0.32157509  0.24263874     0.36600
H258        H  0.72744899  0.15492454  0.30275239     0.28400
H259        H  0.84440397  0.35008948  0.33462194     0.34300
H260        H  0.81538224  0.40589745  0.28945839     0.40200
H261        H  0.63840162  0.20448215  0.22007089     0.34700
H262        H  0.61005890  0.28534072  0.13861557     0.33600
H263        H  0.64549485  0.35491184  0.13411149     0.35200
H264        H  0.70978130  0.42584563  0.20255945     0.34200
H265        H  0.63750073  0.22496016  0.30800284     0.38200
H266        H  0.61471887  0.28866826  0.32125692     0.30900
H267        H  0.85021749  0.26910769  0.14564372     0.35200
H268        H  0.81314637  0.41093866  0.18345997     0.38000
H269        H  0.62359606  0.24768936  0.15734860     0.30600
H270        H  0.64622327  0.28483477  0.35577095     0.43500
H271        H  0.83002546  0.26019212  0.37757862     0.33600
H272        H  0.76513180  0.18003917  0.31000288     0.41200
H273        H  0.72514584  0.40227576  0.16655026     0.33000
H274        H  0.86712430  0.31335968  0.34615788     0.33100
H275        H  0.85501134  0.30437122  0.17312769     0.33400
Zr276      Zr  0.66961220  0.74622504  0.28020245     2.17500
O277        O  0.62495771  0.69651940  0.25778186    -0.49000
O278        O  0.64702801  0.74552654  0.34703964    -0.72200
O279        O  0.69165310  0.68735208  0.30456375    -0.79000
O280        O  0.59826234  0.82559566  0.28184827    -0.80700
O281        O  0.76003658  0.68573650  0.30100644    -0.76400
O282        O  0.60177886  0.76508093  0.26563052    -0.88000
O283        O  0.68802332  0.78424912  0.38277223    -0.74000
O284        O  0.73267806  0.75399378  0.31327107    -0.83400
O285        O  0.67051426  0.80877816  0.30538940    -0.83100
O286        O  0.71909253  0.73081968  0.23209427    -0.69900
O287        O  0.65897607  0.78459299  0.22422348    -0.82000
Zr288      Zr  0.77285655  0.84150077  0.23571971     2.26400
Zr289      Zr  0.78268082  0.74078654  0.26556219     2.06300
Zr290      Zr  0.65996414  0.84771151  0.24962676     2.10000
Zr291      Zr  0.73284296  0.81587845  0.33857868     1.78800
O292        O  0.60719166  0.85902857  0.20052857    -0.90800
O293        O  0.77776202  0.78966778  0.38837904    -0.38600
O294        O  0.72339555  0.85633980  0.28377626    -0.75300
O295        O  0.78456676  0.80345578  0.29184518    -0.94000
O296        O  0.77248075  0.77936594  0.21033936    -0.87300
O297        O  0.70996044  0.83333604  0.20185872    -0.90100
C298        C  0.65892389  0.76109546  0.37925318     1.03600
C299        C  0.58564151  0.79195326  0.28445160     1.16600
C300        C  0.72601023  0.67235999  0.31123980     1.07400
O301        O  0.83855508  0.73348292  0.31222461    -0.92300
O302        O  0.83954520  0.76160046  0.22563332    -0.88000
O303        O  0.84244983  0.82380253  0.23598955    -0.81100
C304        C  0.85592402  0.79355775  0.22099255     1.14000
O305        O  0.65681996  0.73139511  0.15038943    -0.94200
Zr306      Zr  0.71001770  0.77119469  0.17721319     1.88900
O307        O  0.79471489  0.84335196  0.16862835    -0.70900
O308        O  0.80557434  0.68395395  0.23225390    -0.50100
O309        O  0.73698579  0.71617220  0.14331427    -0.94800
O310        O  0.67098466  0.80019809  0.12447016    -0.52000
O311        O  0.76050182  0.79766603  0.13550747    -0.71400
C312        C  0.78699830  0.82331867  0.13797885     1.00900
O313        O  0.81224988  0.89303878  0.26306645    -0.60200
O314        O  0.63833650  0.90172802  0.28847473    -0.55000
O315        O  0.75221749  0.90089433  0.21303711    -0.91700
O316        O  0.68397911  0.90510633  0.21803556    -0.90100
O317        O  0.69802379  0.86505718  0.37524749    -0.90500
O318        O  0.77971306  0.86256738  0.36384352    -0.89300
C319        C  0.71860861  0.91757216  0.20787385     1.19800
H320        H  0.65064425  0.81379466  0.32506528     0.35700
H321        H  0.81062303  0.80849262  0.30378623     0.46600
H322        H  0.70735209  0.84928487  0.17950514     0.40100
H323        H  0.71676189  0.70509660  0.22363139     0.36600
H324        H  0.76624229  0.79814334  0.41364551     0.28400
H325        H  0.80382614  0.68967147  0.20400861     0.34300
H326        H  0.76430341  0.72312273  0.13540350     0.40200
H327        H  0.70127556  0.85811167  0.40306809     0.34700
H328        H  0.61188640  0.90887700  0.27682318     0.33600
H329        H  0.59497490  0.83440728  0.19534665     0.35200
H330        H  0.68849883  0.81942218  0.11389198     0.34200
H331        H  0.77818185  0.88264305  0.34448865     0.38200
H332        H  0.79282589  0.90895555  0.27762619     0.30900
H333        H  0.61748598  0.68334173  0.28167856     0.35200
H334        H  0.66175785  0.72871672  0.12191557     0.38000
H335        H  0.63194749  0.89169989  0.31436911     0.30600
H336        H  0.82948719  0.88194206  0.28385358     0.43500
H337        H  0.82588884  0.73492008  0.33823694     0.33600
H338        H  0.77268598  0.76260590  0.38699833     0.41200
H339        H  0.64939407  0.81441770  0.13793850     0.33000
H340        H  0.83480557  0.68247031  0.23836222     0.33100
H341        H  0.64218463  0.67867583  0.24300717     0.33400
N342        N  0.14625720  0.22011616  0.99948920    -0.01100
C343        C  0.14197839  0.24910301  0.02517144     0.01500
C344        C  0.12751492  0.28020610  0.00649448    -0.21400
C345        C  0.12848711  0.27175829  0.96729457    -0.21600
C346        C  0.14470307  0.23625904  0.96392893     0.01400
H347        H  0.12561582  0.30813302  0.01895454     0.15100
H348        H  0.12774489  0.29239907  0.94465058     0.15200
Zr349      Zr  0.15695477  0.26343627  0.78473394     2.17500
O350        O  0.11633901  0.30279377  0.82866842    -0.49000
O351        O  0.13700002  0.20035778  0.79713755    -0.72200
O352        O  0.09036072  0.26063484  0.75661126    -0.79000
O353        O  0.24153743  0.26413767  0.86034432    -0.80700
O354        O  0.09963896  0.23063258  0.69939914    -0.76400
O355        O  0.17466611  0.25184806  0.85087419    -0.88000
O356        O  0.17858455  0.16440752  0.75944981    -0.74000
O357        O  0.16463772  0.22862155  0.72525182    -0.83400
O358        O  0.22265489  0.23546221  0.78726658    -0.83100
O359        O  0.14457380  0.30665370  0.73325285    -0.69900
O360        O  0.20332130  0.31302720  0.79528240    -0.82000
Zr361      Zr  0.26436368  0.29233874  0.68572166     2.26400
Zr362      Zr  0.15314434  0.27093425  0.67321753     2.06300
Zr363      Zr  0.26943732  0.28503552  0.79674477     2.10000
Zr364      Zr  0.22914146  0.20055893  0.72840892     1.78800
O365        O  0.28553952  0.33347349  0.84544483    -0.90800
O366        O  0.20995947  0.15457459  0.67826817    -0.38600
O367        O  0.27706194  0.24931314  0.73696625    -0.75300
O368        O  0.21890086  0.24168465  0.67517105    -0.94000
O369        O  0.19941041  0.32061304  0.68342255    -0.87300
O370        O  0.25752605  0.32787215  0.74530697    -0.90100
C371        C  0.14918692  0.16907010  0.78280117     1.03600
C372        C  0.20668798  0.25324649  0.87194221     1.16600
C373        C  0.08129808  0.23479970  0.73224120     1.07400
O374        O  0.14096107  0.23052233  0.61605172    -0.92300
O375        O  0.18132682  0.30674783  0.61828306    -0.88000
O376        O  0.24335722  0.28251918  0.61922013    -0.81100
C377        C  0.21721513  0.30426488  0.60463343     1.14000
O378        O  0.14327848  0.37857972  0.78972543    -0.94200
Zr379      Zr  0.19227663  0.35498580  0.74282079     1.88900
O380        O  0.27262814  0.35451709  0.66138928    -0.70900
O381        O  0.09208630  0.30442175  0.65349916    -0.50100
O382        O  0.14116501  0.39020075  0.70681889    -0.94800
O383        O  0.21942611  0.40657769  0.78224153    -0.52000
O384        O  0.23089915  0.39084916  0.69861198    -0.71400
C385        C  0.25709528  0.38587734  0.67195006     1.00900
O386        O  0.31787753  0.25935991  0.65078321    -0.60200
O387        O  0.32333247  0.24467098  0.82103135    -0.55000
O388        O  0.32950260  0.31119924  0.70497738    -0.91700
O389        O  0.33465225  0.30979417  0.77176968    -0.90100
O390        O  0.26308137  0.15798333  0.77305069    -0.90500
O391        O  0.28781037  0.17457148  0.69550136    -0.89300
C392        C  0.34854490  0.31646887  0.73724548     1.19800
H393        H  0.22531232  0.21757632  0.80784010     0.35700
H394        H  0.22373368  0.22771195  0.65116728     0.46600
H395        H  0.27640487  0.34801129  0.74715285     0.40100
H396        H  0.11796236  0.31768054  0.73411757     0.36600
H397        H  0.21358150  0.13038042  0.69125339     0.28400
H398        H  0.10101584  0.32227303  0.63391515     0.34300
H399        H  0.14909495  0.41648674  0.71065533     0.40200
H400        H  0.26177290  0.13343749  0.75934006     0.34700
H401        H  0.32317532  0.24826804  0.84989307     0.33600
H402        H  0.26701399  0.35434663  0.83897179     0.35200
H403        H  0.20693126  0.42909247  0.77073357     0.34200
H404        H  0.31123578  0.18514015  0.71006181     0.38200
H405        H  0.33334311  0.24579038  0.67119101     0.30900
H406        H  0.11115399  0.28867937  0.85254320     0.35200
H407        H  0.15365560  0.37049168  0.81563072     0.38000
H408        H  0.31319085  0.21917397  0.81628901     0.30600
H409        H  0.30420528  0.23945433  0.63526798     0.43500
H410        H  0.13767115  0.20550613  0.62696301     0.33600
H411        H  0.18042841  0.15773984  0.67517326     0.41200
H412        H  0.24814293  0.40780959  0.77532053     0.33000
H413        H  0.07624660  0.28591753  0.63801810     0.33100
H414        H  0.08970300  0.30579679  0.81553042     0.33400
Zr415      Zr  0.18307577  0.81510201  0.80750126     2.17500
O416        O  0.13435264  0.79928455  0.85670855    -0.49000
O417        O  0.17825922  0.88215417  0.81040906    -0.72200
O418        O  0.20527971  0.83609121  0.87078036    -0.79000
O419        O  0.11189845  0.81811710  0.72090028    -0.80700
O420        O  0.27109181  0.81837143  0.87726004    -0.76400
O421        O  0.11771669  0.83430980  0.78582638    -0.88000
O422        O  0.22131800  0.90333171  0.76527469    -0.74000
O423        O  0.25127822  0.83275987  0.80257157    -0.83400
O424        O  0.19049377  0.83324487  0.74143031    -0.83100
O425        O  0.22121400  0.76131294  0.82670033    -0.69900
O426        O  0.16234427  0.76222780  0.76842621    -0.82000
Zr427      Zr  0.27807946  0.74451688  0.71358322     2.26400
Zr428      Zr  0.28998627  0.77894107  0.81966383     2.06300
Zr429      Zr  0.17143119  0.78065132  0.70189230     2.10000
Zr430      Zr  0.25851335  0.85057592  0.73666706     1.78800
O431        O  0.11154448  0.74543409  0.68391295    -0.90800
O432        O  0.31151790  0.88731419  0.76828815    -0.38600
O433        O  0.24014245  0.79845462  0.69481624    -0.75300
O434        O  0.29901361  0.79709904  0.75315497    -0.94000
O435        O  0.27123213  0.72636896  0.77970640    -0.87300
O436        O  0.20981783  0.72696206  0.71953700    -0.90100
C437        C  0.19395427  0.90807311  0.79105770     1.03600
C438        C  0.09942851  0.83432901  0.75264688     1.16600
C439        C  0.23889790  0.83535264  0.88923128     1.07400
O440        O  0.35081336  0.81496188  0.83085590    -0.92300
O441        O  0.34533215  0.73535379  0.80162827    -0.88000
O442        O  0.34185792  0.72197364  0.73597239    -0.81100
C443        C  0.35822656  0.71932921  0.76988406     1.14000
O444        O  0.15681039  0.69727013  0.83761786    -0.94200
Zr445      Zr  0.20322996  0.70901396  0.78520434     1.88900
O446        O  0.27948134  0.67751720  0.70636808    -0.70900
O447        O  0.30478421  0.74532262  0.87965053    -0.50100
O448        O  0.23090045  0.66733179  0.83436303    -0.94800
O449        O  0.14430808  0.67516218  0.76117412    -0.52000
O450        O  0.23388611  0.65656705  0.74924723    -0.71400
C451        C  0.26012740  0.65160662  0.72238594     1.00900
O452        O  0.32846965  0.76214715  0.66689983    -0.60200
O453        O  0.16121290  0.81922449  0.64474118    -0.55000
O454        O  0.25596588  0.72595274  0.64897651    -0.91700
O455        O  0.18967700  0.74263446  0.64356292    -0.90100
O456        O  0.23768968  0.89026451  0.68278230    -0.90500
O457        O  0.30927205  0.86181191  0.68800252    -0.89300
C458        C  0.22189611  0.72622428  0.63105265     1.19800
H459        H  0.17376323  0.85444710  0.73489310     0.35700
H460        H  0.32715525  0.80192644  0.74906024     0.46600
H461        H  0.20284536  0.70595368  0.70271564     0.40100
H462        H  0.21614110  0.75584291  0.85375106     0.36600
H463        H  0.30300523  0.89087349  0.79577811     0.28400
H464        H  0.27929601  0.74574874  0.89417171     0.34300
H465        H  0.25698067  0.67835552  0.84242960     0.40200
H466        H  0.20800397  0.89203777  0.68417101     0.34700
H467        H  0.15642743  0.84458960  0.65569121     0.33600
H468        H  0.09828507  0.75990212  0.66280517     0.35200
H469        H  0.15198822  0.64858565  0.76340928     0.34200
H470        H  0.33185840  0.84464932  0.69443998     0.38200
H471        H  0.31547934  0.78248513  0.65196145     0.30900
H472        H  0.12675061  0.82325705  0.86959710     0.35200
H473        H  0.13767890  0.71861120  0.83716043     0.38000
H474        H  0.18804587  0.82035468  0.63278463     0.30600
H475        H  0.34977674  0.77459059  0.68289395     0.43500
H476        H  0.36990872  0.79772098  0.84407579     0.33600
H477        H  0.33506738  0.87022095  0.76994257     0.41200
H478        H  0.14295759  0.67938437  0.73260215     0.33000
H479        H  0.30834262  0.71905214  0.87100070     0.33100
H480        H  0.14989534  0.78568239  0.87704385     0.33400
Zr481      Zr  0.79021874  0.25842608  0.80337346     2.17500
O482        O  0.81643829  0.28138702  0.86658381    -0.49000
O483        O  0.81693666  0.19557939  0.80291816    -0.72200
O484        O  0.76425942  0.22211321  0.85418246    -0.79000
O485        O  0.87667238  0.30061731  0.75203237    -0.80700
O486        O  0.69715228  0.21631473  0.84091392    -0.76400
O487        O  0.86023956  0.26731795  0.80538353    -0.88000
O488        O  0.79230931  0.16933421  0.74626188    -0.74000
O489        O  0.74052628  0.22133648  0.77153852    -0.83400
O490        O  0.81038505  0.25327635  0.73682431    -0.83100
O491        O  0.72804683  0.29033238  0.81580719    -0.69900
O492        O  0.79535567  0.32083558  0.78135531    -0.82000
Zr493      Zr  0.70133293  0.30968321  0.69297258     2.26400
Zr494      Zr  0.67819726  0.25320457  0.78204607     2.06300
Zr495      Zr  0.81363546  0.31562703  0.71352271     2.10000
Zr496      Zr  0.76041211  0.21627996  0.70529441     1.78800
O497        O  0.85172130  0.37270229  0.72233465    -0.90800
O498        O  0.71821079  0.16183581  0.69560854    -0.38600
O499        O  0.76369409  0.27808056  0.68047213    -0.75300
O500        O  0.69659893  0.24708450  0.71437716    -0.94000
O501        O  0.68175411  0.31526413  0.75942728    -0.87300
O502        O  0.75114459  0.34738780  0.72451314    -0.90100
C503        C  0.81104906  0.16783553  0.77949391     1.03600
C504        C  0.88544682  0.28269584  0.78378941     1.16600
C505        C  0.72969710  0.20944889  0.86128255     1.07400
O506        O  0.64354672  0.19472321  0.76972009    -0.92300
O507        O  0.61516875  0.27457005  0.74786349    -0.88000
O508        O  0.63109442  0.30107908  0.69031970    -0.81100
C509        C  0.60598774  0.28997483  0.71483651     1.14000
O510        O  0.75753627  0.36452146  0.85744723    -0.94200
Zr511      Zr  0.73213328  0.35194421  0.79104454     1.88900
O512        O  0.66755300  0.36965151  0.69788434    -0.70900
O513        O  0.63151458  0.27012950  0.83374157    -0.50100
O514        O  0.68014843  0.37261926  0.83613949    -0.94800
O515        O  0.77318848  0.40758716  0.79237440    -0.52000
O516        O  0.68849715  0.39525200  0.75628230    -0.71400
C517        C  0.66831573  0.39591221  0.72384186     1.00900
O518        O  0.67968443  0.28713339  0.62797578    -0.60200
O519        O  0.85888151  0.29264141  0.66293205    -0.55000
O520        O  0.72552333  0.34678011  0.64261886    -0.91700
O521        O  0.79278165  0.35360171  0.65473824    -0.90100
O522        O  0.82093528  0.19692954  0.67065023    -0.90500
O523        O  0.74180571  0.20421707  0.63667707    -0.89300
C524        C  0.75947478  0.36032218  0.63511191     1.19800
H525        H  0.83608809  0.24061090  0.73469628     0.35700
H526        H  0.67589783  0.23409807  0.69944228     0.46600
H527        H  0.75138837  0.37200866  0.71392404     0.40100
H528        H  0.72296149  0.29150272  0.84358348     0.36600
H529        H  0.73732818  0.14054795  0.69352221     0.28400
H530        H  0.62576141  0.29692294  0.83007280     0.34300
H531        H  0.65446055  0.36601889  0.82266977     0.40200
H532        H  0.82417516  0.17003088  0.67560318     0.34700
H533        H  0.84229561  0.29227046  0.63846946     0.33600
H534        H  0.85801405  0.38025080  0.69544696     0.35200
H535        H  0.75360715  0.42858393  0.79226681     0.34200
H536        H  0.75906548  0.22073923  0.62166789     0.38200
H537        H  0.70463986  0.27782286  0.61553828     0.30900
H538        H  0.82871018  0.25938581  0.87932668     0.35200
H539        H  0.78577145  0.35538332  0.85734794     0.38000
H540        H  0.87803626  0.31310887  0.65960697     0.30600
H541        H  0.66421506  0.26436275  0.63251024     0.43500
H542        H  0.62695234  0.19874114  0.74571066     0.33600
H543        H  0.70525688  0.15881867  0.72119375     0.41200
H544        H  0.78566584  0.40801270  0.76630251     0.33000
H545        H  0.60612226  0.25764077  0.82591766     0.33100
H546        H  0.79239098  0.28755798  0.88221948     0.33400
Zr547      Zr  0.74816389  0.82476892  0.81469223     2.17500
O548        O  0.72292446  0.85026076  0.87647447    -0.49000
O549        O  0.81115332  0.85689292  0.81039834    -0.72200
O550        O  0.78996648  0.80405828  0.86734348    -0.79000
O551        O  0.70988387  0.89916096  0.75082474    -0.80700
O552        O  0.79763574  0.74132591  0.85972211    -0.76400
O553        O  0.73535471  0.88996682  0.81243206    -0.88000
O554        O  0.83958886  0.83679478  0.75339311    -0.74000
O555        O  0.79210040  0.77856361  0.78780615    -0.83400
O556        O  0.75383535  0.83788159  0.74697578    -0.83100
O557        O  0.71791477  0.76661280  0.82879959    -0.69900
O558        O  0.68009920  0.82535127  0.79017250    -0.82000
Zr559      Zr  0.69907394  0.73325240  0.70592392     2.26400
Zr560      Zr  0.76136009  0.72040485  0.79911323     2.06300
Zr561      Zr  0.68638967  0.83836772  0.72196783     2.10000
Zr562      Zr  0.79653764  0.79143927  0.72009776     1.78800
O563        O  0.62320746  0.87179366  0.73301759    -0.90800
O564        O  0.86007828  0.75770430  0.72743204    -0.38600
O565        O  0.72946995  0.79143228  0.69267130    -0.75300
O566        O  0.76710310  0.73236121  0.73050446    -0.94000
O567        O  0.69418755  0.72000469  0.77359282    -0.87300
O568        O  0.65556697  0.77984094  0.73363409    -0.90100
C569        C  0.83877903  0.85700115  0.78490178     1.03600
C570        C  0.72673181  0.91055603  0.78354782     1.16600
C571        C  0.80419848  0.77273356  0.87773201     1.07400
O572        O  0.82367665  0.69000343  0.77875996    -0.92300
O573        O  0.72605671  0.66315493  0.77649623    -0.88000
O574        O  0.71537076  0.66833805  0.71108720    -0.81100
C575        C  0.71439135  0.65006161  0.74257317     1.14000
O576        O  0.63183993  0.79730481  0.86187512    -0.94200
Zr577      Zr  0.65095031  0.76572594  0.80089055     1.88900
O578        O  0.63830741  0.69827785  0.71107307    -0.70900
O579        O  0.76638134  0.67595472  0.85181505    -0.50100
O580        O  0.63804481  0.71972645  0.85022664    -0.94800
O581        O  0.58371159  0.79289958  0.79307920    -0.52000
O582        O  0.61136098  0.71650689  0.76931494    -0.71400
C583        C  0.61201330  0.69646269  0.73767316     1.00900
O584        O  0.72110746  0.70822331  0.64273676    -0.60200
O585        O  0.69941110  0.87729480  0.66633263    -0.55000
O586        O  0.65711897  0.75524532  0.65347066    -0.91700
O587        O  0.64788504  0.81780859  0.66264599    -0.90100
O588        O  0.81102722  0.83602757  0.66965099    -0.90500
O589        O  0.81704571  0.76197030  0.65857648    -0.89300
C590        C  0.64192047  0.78659412  0.64402071     1.19800
H591        H  0.76697321  0.86109433  0.74263122     0.35700
H592        H  0.78239666  0.71288196  0.71738144     0.46600
H593        H  0.62891761  0.77880999  0.72195376     0.40100
H594        H  0.71693446  0.76328988  0.85679555     0.36600
H595        H  0.88040080  0.77454352  0.71705678     0.28400
H596        H  0.73872700  0.66665970  0.85465573     0.34300
H597        H  0.66234377  0.70347832  0.85039999     0.40200
H598        H  0.80997463  0.86073775  0.68302551     0.34700
H599        H  0.68888635  0.90225377  0.67398172     0.33600
H600        H  0.60295394  0.85808304  0.71686684     0.35200
H601        H  0.57057656  0.77849557  0.77141051     0.34200
H602        H  0.79402154  0.76602952  0.64020409     0.38200
H603        H  0.72621836  0.73028835  0.62685336     0.30900
H604        H  0.74561274  0.86442005  0.88838827     0.35200
H605        H  0.60620625  0.78594422  0.86928495     0.38000
H606        H  0.72902354  0.87999215  0.66668647     0.30600
H607        H  0.74822873  0.69750661  0.64803548     0.43500
H608        H  0.84244073  0.69374536  0.80140585     0.33600
H609        H  0.86561266  0.75770119  0.75606381     0.41200
H610        H  0.58821735  0.81765499  0.78202730     0.33000
H611        H  0.78170288  0.65455490  0.84063255     0.33100
H612        H  0.72002496  0.82860926  0.89354069     0.33400
N613        N  0.47932599  0.64773856  0.73388816    -0.01100
C614        C  0.51516050  0.63570450  0.74828708     0.01500
C615        C  0.51184393  0.62640754  0.78711101    -0.21400
C616        C  0.47272423  0.63417046  0.79719019    -0.21600
C617        C  0.45357120  0.64766199  0.76406411     0.01400
H618        H  0.53636949  0.62015302  0.80740767     0.15100
H619        H  0.46115671  0.63454953  0.82662653     0.15200
N620        N  0.27656013  0.51935121  0.66539449    -0.01100
C621        C  0.25345712  0.48893073  0.66173888     0.01500
C622        C  0.21661356  0.49527278  0.67875007    -0.21400
C623        C  0.21698937  0.53128367  0.69321014    -0.21600
C624        C  0.25412016  0.54534503  0.68456272     0.01400
H625        H  0.19280202  0.47538601  0.68183726     0.15100
H626        H  0.19307000  0.54542788  0.70891167     0.15200
N627        N  0.47558529  0.34294960  0.66882104    -0.01100
C628        C  0.49829650  0.31199027  0.66189259     0.01500
C629        C  0.47445671  0.28236648  0.65085128    -0.21400
C630        C  0.43560490  0.29410772  0.65620590    -0.21600
C631        C  0.43762910  0.32991493  0.67179888     0.01400
H632        H  0.48409049  0.25360078  0.64751393     0.15100
H633        H  0.41031378  0.27559597  0.65801177     0.15200
N634        N  0.63923130  0.52871714  0.71636230    -0.01100
C635        C  0.63018082  0.49785945  0.73610952     0.01500
C636        C  0.63509251  0.50398654  0.77600196    -0.21400
C637        C  0.64831218  0.53977709  0.78111261    -0.21600
C638        C  0.65096951  0.55424668  0.74415758     0.01400
H639        H  0.63375073  0.48339316  0.79857621     0.15100
H640        H  0.65846087  0.55260437  0.80853412     0.15200
N641        N  0.47478383  0.41540264  0.27712361    -0.01100
C642        C  0.50562082  0.42079814  0.25244863     0.01500
C643        C  0.49230933  0.43907413  0.21946378    -0.21400
C644        C  0.45148033  0.44307004  0.22247423    -0.21600
C645        C  0.44111701  0.42640575  0.25682635     0.01400
H646        H  0.50915502  0.44326121  0.19313905     0.15100
H647        H  0.43115129  0.45035615  0.19853187     0.15200
N648        N  0.69424232  0.54773226  0.36267579    -0.01100
C649        C  0.71361763  0.51439033  0.36465521     0.01500
C650        C  0.75425764  0.51909616  0.37174076    -0.21400
C651        C  0.76056692  0.55665100  0.37316689    -0.21600
C652        C  0.72353258  0.57358804  0.36707956     0.01400
H653        H  0.77747183  0.49767881  0.37075899     0.15100
H654        H  0.78962193  0.56991401  0.37349832     0.15200
N655        N  0.48204228  0.74977256  0.38056321    -0.01100
C656        C  0.51709144  0.76877850  0.37845945     0.01500
C657        C  0.51459240  0.80128684  0.40076078    -0.21400
C658        C  0.47587013  0.80445672  0.41338496    -0.21600
C659        C  0.45627137  0.77333938  0.39919165     0.01400
H660        H  0.53554575  0.82406965  0.40054729     0.15100
H661        H  0.46199751  0.82967812  0.42503103     0.15200
N662        N  0.27526962  0.52123574  0.33797846    -0.01100
C663        C  0.25480536  0.49003049  0.34636422     0.01500
C664        C  0.21425386  0.49453877  0.33810320    -0.21400
C665        C  0.20912599  0.52946785  0.32362312    -0.21600
C666        C  0.24671073  0.54516533  0.32343329     0.01400
H667        H  0.19135491  0.47349813  0.33930370     0.15100
H668        H  0.18130368  0.54126872  0.31204799     0.15200
N669        N  0.59556225  0.75183185  0.51180751    -0.01100
C670        C  0.59463856  0.76803861  0.47634208     0.01500
C671        C  0.58404926  0.80515989  0.48008784    -0.21400
C672        C  0.57850086  0.81231843  0.51925160    -0.21600
C673        C  0.58609819  0.77937220  0.53809842     0.01400
H674        H  0.58490939  0.82577156  0.45751830     0.15100
H675        H  0.57441733  0.83956220  0.53289211     0.15200
N676        N  0.71296274  0.41069701  0.50914666    -0.01100
C677        C  0.73429513  0.41377882  0.47573573     0.01500
C678        C  0.76936820  0.43287574  0.48295067    -0.21400
C679        C  0.77172683  0.43953325  0.52250673    -0.21600
C680        C  0.73837636  0.42365320  0.53837840     0.01400
H681        H  0.79382948  0.43587945  0.46284375     0.15100
H682        H  0.79877464  0.44801119  0.53838467     0.15200
N683        N  0.24819127  0.65535043  0.50601961    -0.01100
C684        C  0.23121079  0.64798119  0.47053571     0.01500
C685        C  0.18979422  0.65026107  0.47252702    -0.21400
C686        C  0.18113523  0.66022146  0.51062327    -0.21600
C687        C  0.21758244  0.66349138  0.53045049     0.01400
H688        H  0.16854489  0.64990474  0.44801557     0.15100
H689        H  0.15182257  0.66830741  0.52143607     0.15200
N690        N  0.31176328  0.34400878  0.50875706    -0.01100
C691        C  0.32447352  0.30947814  0.49744226     0.01500
C692        C  0.33633078  0.28936577  0.52965763    -0.21400
C693        C  0.32465287  0.31021009  0.56169569    -0.21600
C694        C  0.30345409  0.34058316  0.54728386     0.01400
H695        H  0.34385997  0.25998450  0.52995970     0.15100
H696        H  0.32148918  0.29889013  0.59049322     0.15200
O697        O  0.87365877  0.95271484  0.99736013    -0.84200
O698        O  0.10113033  0.97968685  0.00375680    -0.84300
O699        O  0.99137247  0.92692867  0.92806579    -0.86000
O700        O  0.99028137  0.91419881  0.05519377    -0.84700
O701        O  0.98155571  0.95311718  0.10889642    -0.84300
O702        O  0.98198503  0.97689632  0.88798308    -0.85700
O703        O  0.06029801  0.92885261  0.99676079    -0.84200
O704        O  0.92935761  0.91437858  0.99120008    -0.83800
Zr705      Zr  0.98948908  0.95183460  0.99616206     2.84300
O706        O  0.02470096  0.99025408  0.04112024    -1.05700
O707        O  0.94188081  0.98803732  0.96095368    -1.06500
C708        C  0.89111061  0.92025463  0.99328727     1.09000
C709        C  0.09527739  0.94434092  0.00043339     1.08900
C710        C  0.98747447  0.94192005  0.89397253     1.11900
C711        C  0.98561813  0.92027870  0.09234378     1.09700
H712        H  0.04114672  0.98469565  0.94420229     0.35200
O713        O  0.02293564  0.99721635  0.96196817    -1.26700
H714        H  0.92871207  0.96350680  0.05291456     0.34900
O715        O  0.94356373  0.98176931  0.03902903    -1.28400
O716        O  0.08500462  0.09917851  0.00969476    -0.84100
O717        O  0.85561622  0.07631103  0.00489396    -0.85600
O718        O  0.03958187  0.03948100  0.89550204    -0.84200
O719        O  0.04834530  0.01696605  0.11615477    -0.84300
O720        O  0.91186978  0.01734511  0.11586503    -0.84000
O721        O  0.90961727  0.03005786  0.89357424    -0.83800
O722        O  0.96923835  0.13754932  0.95212968    -0.84200
O723        O  0.97117401  0.12623463  0.08656142    -0.83600
O724        O  0.97183475  0.09538953  0.90038513    -0.84700
O725        O  0.97928966  0.07552476  0.12623779    -0.83800
O726        O  0.09052365  0.03944311  0.94212041    -0.84200
O727        O  0.86133800  0.01900566  0.93876634    -0.84000
O728        O  0.86372838  0.01617828  0.06635586    -0.83600
O729        O  0.09422618  0.03126039  0.06943765    -0.84000
O730        O  0.03139971  0.13996603  0.01527067    -0.84300
O731        O  0.89711702  0.12683215  0.01318785    -0.85700
Zr732      Zr  0.05875073  0.03565286  0.00643161     2.83100
Zr733      Zr  0.89669924  0.01839247  0.00331393     2.83500
Zr734      Zr  0.97555606  0.03371459  0.92758163     2.84100
Zr735      Zr  0.97953809  0.01853637  0.08531211     2.83400
Zr736      Zr  0.96824480  0.10343141  0.01570671     2.84200
O737        O  0.93424333  0.05596569  0.04831274    -1.06200
O738        O  0.01171322  0.07217091  0.97199297    -1.05700
C739        C  0.06962262  0.13237034  0.01205695     1.08900
C740        C  0.86186512  0.11180841  0.00815502     1.11500
C741        C  0.07696263  0.03994993  0.90628850     1.09100
C742        C  0.08475269  0.02278677  0.10459104     1.09500
C743        C  0.87471370  0.01709011  0.10288048     1.09000
C744        C  0.87284385  0.02428652  0.90327143     1.08600
C745        C  0.97073139  0.12880198  0.91477552     1.09000
C746        C  0.97631955  0.11095103  0.12085854     1.08500
H747        H  0.91339985  0.07934873  0.95531153     0.35200
O748        O  0.93185997  0.06446039  0.97078375    -1.27300
H749        H  0.02973553  0.07950550  0.06860736     0.35200
O750        O  0.01385734  0.06447274  0.05047546    -1.28700
O751        O  0.46192500  0.63197178  0.58927267    -0.84200
O752        O  0.49069527  0.42262471  0.55545730    -0.84300
O753        O  0.41243797  0.52285710  0.61415574    -0.86000
O754        O  0.54303680  0.52956913  0.62080495    -0.84700
O755        O  0.59244647  0.54446397  0.57807212    -0.84300
O756        O  0.36521695  0.52365380  0.56398592    -0.85700
O757        O  0.48318838  0.46219731  0.60889094    -0.84200
O758        O  0.47078331  0.58034025  0.62710662    -0.83800
Zr759      Zr  0.47861938  0.52567830  0.58470470     2.84300
O760        O  0.52496496  0.49864852  0.54140412    -1.05700
O761        O  0.43241047  0.56252024  0.54955204    -1.06500
C762        C  0.46522457  0.61552657  0.62268910     1.09000
C763        C  0.48691370  0.42941576  0.59296594     1.08900
C764        C  0.37590187  0.52340440  0.60058714     1.11900
C765        C  0.57978188  0.53719675  0.61271448     1.09700
H766        H  0.42961122  0.47036417  0.55069850     0.35200
O767        O  0.44467190  0.48873905  0.53724193    -1.26700
H768        H  0.52667906  0.58910612  0.57430304     0.34900
O769        O  0.51271659  0.57384206  0.55484702    -1.28400
O770        O  0.48916975  0.43967788  0.42317239    -0.84100
O771        O  0.46775038  0.65048677  0.46219205    -0.85600
O772        O  0.37352679  0.46278421  0.49580954    -0.84200
O773        O  0.60279832  0.49065661  0.50940908    -0.84300
O774        O  0.58051349  0.61377587  0.51762859    -0.84000
O775        O  0.35603751  0.58124377  0.50843368    -0.83800
O776        O  0.41465660  0.54409741  0.39190502    -0.84200
O777        O  0.54963243  0.55345178  0.39991163    -0.83600
O778        O  0.36718979  0.52852540  0.43652203    -0.84700
O779        O  0.59572230  0.55421406  0.45121729    -0.83800
O780        O  0.42807198  0.42289209  0.49138455    -0.84200
O781        O  0.39507819  0.63255146  0.52084905    -0.84000
O782        O  0.52376784  0.65035108  0.52539339    -0.83600
O783        O  0.56381133  0.43891050  0.49776940    -0.84000
O784        O  0.48440297  0.49175955  0.38512210    -0.84300
O785        O  0.47888934  0.61367953  0.40730464    -0.85700
Zr786      Zr  0.49128914  0.46009506  0.49437595     2.83100
Zr787      Zr  0.46569565  0.61066242  0.51969814     2.83500
Zr788      Zr  0.39935893  0.52625902  0.50144520     2.84100
Zr789      Zr  0.55997793  0.54701894  0.51225596     2.83400
Zr790      Zr  0.48107401  0.54750093  0.42756893     2.84200
O791        O  0.51316583  0.58345354  0.47704073    -1.06200
O792        O  0.44702005  0.49969478  0.45908021    -1.05700
C793        C  0.48610901  0.45615273  0.38943399     1.08900
C794        C  0.47423883  0.64581697  0.42509356     1.11500
C795        C  0.38953114  0.42987202  0.49318691     1.09100
C796        C  0.59837929  0.45514642  0.50425074     1.09500
C797        C  0.56202013  0.64577305  0.52200214     1.09000
C798        C  0.36077792  0.61627842  0.51583083     1.08600
C799        C  0.37815947  0.53591693  0.40150588     1.09000
C800        C  0.58618317  0.55492615  0.41435263     1.08500
H801        H  0.41453775  0.58945837  0.45590751     0.35200
O802        O  0.43331317  0.57413049  0.47053927    -1.27300
H803        H  0.54500522  0.49778239  0.44730624     0.35200
O804        O  0.52566851  0.50926802  0.46466026    -1.28700
C805        C  0.33748275  0.37380802  0.49934581    -0.10900
C806        C  0.36161328  0.39865173  0.49436318    -0.12500
C807        C  0.28948100  0.64950255  0.51500133    -0.10900
C808        C  0.32402630  0.63831327  0.51779807    -0.12500
C809        C  0.63611004  0.43276660  0.50633293    -0.10900
C810        C  0.67085070  0.42024671  0.50847535    -0.12500
C811        C  0.59299622  0.71299657  0.51794373    -0.10900
C812        C  0.58433550  0.68036358  0.52129631    -0.12500
C813        C  0.31451500  0.52956921  0.35294282    -0.10900
C814        C  0.34606690  0.53422297  0.37144354    -0.12500
C815        C  0.47763250  0.67992754  0.40253722    -0.10900
C816        C  0.48064425  0.71125148  0.38949067    -0.12500
C817        C  0.65338903  0.55326436  0.37322536    -0.10900
C818        C  0.62025039  0.55573195  0.38800352    -0.12500
C819        C  0.47939013  0.42275633  0.31836802    -0.10900
C820        C  0.48331922  0.43404006  0.35254362    -0.12500
C821        C  0.62594289  0.53503915  0.67728617    -0.10900
C822        C  0.60832639  0.53744886  0.64573278    -0.12500
C823        C  0.48531880  0.39817730  0.61985983    -0.10900
C824        C  0.48149699  0.37340151  0.64356799    -0.12500
C825        C  0.31397428  0.52338982  0.64763919    -0.10900
C826        C  0.34396284  0.52408615  0.62835103    -0.12500
C827        C  0.46910192  0.64599445  0.69341549    -0.10900
C828        C  0.46444763  0.63725441  0.65900402    -0.12500
C829        C  0.61657073  0.78537083  0.60954221    -0.10900
C830        C  0.59944145  0.78027144  0.57842390    -0.12500
C831        C  0.67405904  0.58720290  0.73795000    -0.10900
C832        C  0.69479005  0.61460080  0.73972748    -0.12500
C833        C  0.58094104  0.66967509  0.73228646    -0.10900
C834        C  0.55217993  0.65007461  0.73471285    -0.12500
C835        C  0.75721254  0.38529486  0.60238588    -0.10900
C836        C  0.74626095  0.40371048  0.57449398    -0.12500
C837        C  0.56494589  0.29637999  0.70267579    -0.10900
C838        C  0.53466330  0.30461250  0.68444610    -0.12500
C839        C  0.64570139  0.42930863  0.71661297    -0.10900
C840        C  0.63320039  0.46076595  0.71985869    -0.12500
C841        C  0.22016453  0.70457295  0.59533917    -0.10900
C842        C  0.22109489  0.68449889  0.56660980    -0.12500
C843        C  0.41924267  0.67220922  0.76710011    -0.10900
C844        C  0.39241582  0.69473732  0.77135428    -0.12500
C845        C  0.26674697  0.61424976  0.70793667    -0.10900
C846        C  0.26579175  0.58251007  0.69579820    -0.12500
C847        C  0.23283981  0.32933550  0.57634198    -0.10900
C848        C  0.26182339  0.34164857  0.56002951    -0.12500
C849        C  0.26890153  0.41909661  0.65366349    -0.10900
C850        C  0.26727915  0.45227242  0.65070516    -0.12500
C851        C  0.41413991  0.33628978  0.70699468    -0.10900
C852        C  0.38815613  0.33070961  0.73068748    -0.12500
C853        C  0.09780891  0.16329362  0.00951959    -0.10900
C854        C  0.12145133  0.18869597  0.00518747    -0.12500
C855        C  0.17818242  0.23327664  0.93744905    -0.10900
C856        C  0.20016729  0.24081402  0.91097384    -0.12500
C857        C  0.61597972  0.75467645  0.44248583    -0.10900
C858        C  0.63626993  0.75390671  0.41357999    -0.12500
C859        C  0.55710092  0.78220750  0.31393970    -0.10900
C860        C  0.53845044  0.77212950  0.34199226    -0.12500
C861        C  0.72520329  0.63844771  0.33270896    -0.10900
C862        C  0.72157476  0.60998876  0.35035374    -0.12500
C863        C  0.73353722  0.38650985  0.44377197    -0.10900
C864        C  0.73854805  0.36479377  0.41648813    -0.12500
C865        C  0.70006155  0.48093781  0.34491682    -0.10900
C866        C  0.69936915  0.45253517  0.32539445    -0.12500
C867        C  0.56721463  0.37390378  0.24321730    -0.10900
C868        C  0.53955727  0.39540538  0.24925828    -0.12500
C869        C  0.25085727  0.65600796  0.43491105    -0.10900
C870        C  0.25827715  0.67332398  0.40641959    -0.12500
C871        C  0.24870441  0.60796522  0.28515703    -0.10900
C872        C  0.25259613  0.57935660  0.30301806    -0.12500
C873        C  0.41514225  0.77681902  0.38592411    -0.10900
C874        C  0.38400845  0.78156373  0.36791007    -0.12500
C875        C  0.15192481  0.01736164  0.14814460    -0.10900
C876        C  0.11867917  0.01909610  0.13224434    -0.12500
C877        C  0.21145763  0.96022952  0.19496628    -0.10900
C878        C  0.21466642  0.93713697  0.22019601    -0.12500
C879        C  0.28819068  0.27631778  0.43620670    -0.10900
C880        C  0.30508825  0.29015065  0.46464156    -0.12500
C881        C  0.37902166  0.38153474  0.24819977    -0.10900
C882        C  0.40557013  0.40370070  0.25465819    -0.12500
C883        C  0.27312896  0.41976170  0.34428085    -0.10900
C884        C  0.27161219  0.45304798  0.34998203    -0.12500
C885        C  0.19353022  0.26160556  0.08376171    -0.10900
C886        C  0.17075495  0.25492846  0.05666874    -0.12500
C887        C  0.21178588  0.08334065  0.15323751    -0.10900
C888        C  0.21424169  0.11491577  0.16569788    -0.12500
C889        C  0.98428493  0.14674617  0.19095258    -0.10900
C890        C  0.98017899  0.13422769  0.15711731    -0.12500
C891        C  0.89812124  0.21143117  0.25528937    -0.10900
C892        C  0.92348080  0.18728880  0.25146522    -0.12500
C893        C  0.05674533  0.15526671  0.26008154    -0.10900
C894        C  0.08881705  0.16947320  0.26868110    -0.12500
C895        C  0.72191769  0.95192405  0.18750058    -0.10900
C896        C  0.73131108  0.97931966  0.17007780    -0.12500
C897        C  0.77915073  0.13635286  0.18139356    -0.10900
C898        C  0.77542923  0.10547883  0.16708876    -0.12500
C899        C  0.80905282  0.02599304  0.14559984    -0.10900
C900        C  0.84158411  0.01984227  0.13042832    -0.12500
C901        C  0.04140876  0.78517740  0.14625260    -0.10900
C902        C  0.07004186  0.77639321  0.16644733    -0.12500
C903        C  0.91221035  0.80236154  0.16852407    -0.10900
C904        C  0.88842223  0.79724832  0.19415921    -0.12500
C905        C  0.98349072  0.88686412  0.11620145    -0.10900
C906        C  0.98054395  0.85567058  0.12962536    -0.12500
C907        C  0.15988571  0.97430687  0.79356067    -0.10900
C908        C  0.17706210  0.94471648  0.79621871    -0.12500
C909        C  0.11935258  0.10382343  0.78961324    -0.10900
C910        C  0.12841100  0.13601473  0.79171856    -0.12500
C911        C  0.12018060  0.03792296  0.84285067    -0.10900
C912        C  0.10505283  0.03945565  0.87476035    -0.12500
C913        C  0.90050646  0.90050366  0.78643403    -0.10900
C914        C  0.87094741  0.88245528  0.79083345    -0.12500
C915        C  0.03482247  0.87687747  0.75475199    -0.10900
C916        C  0.06336164  0.85621610  0.75170990    -0.12500
C917        C  0.98362915  0.90770648  0.82500946    -0.10900
C918        C  0.98805082  0.91860152  0.85877720    -0.12500
C919        C  0.95332671  0.26158139  0.81568987    -0.10900
C920        C  0.92611792  0.27622128  0.79726461    -0.12500
C921        C  0.03815680  0.19627487  0.77626666    -0.10900
C922        C  0.05407308  0.20771547  0.74717309    -0.12500
C923        C  0.97269323  0.15800839  0.88570223    -0.10900
C924        C  0.97812884  0.17886296  0.85849313    -0.12500
C925        C  0.76250406  0.97550093  0.78928763    -0.10900
C926        C  0.74243826  0.94763527  0.78739421    -0.12500
C927        C  0.82479544  0.09815734  0.79318741    -0.10900
C928        C  0.82387879  0.13158255  0.79163877    -0.12500
C929        C  0.82253757  0.02669674  0.84107628    -0.10900
C930        C  0.84270697  0.02432766  0.87133997    -0.12500
C931        C  0.20323893  0.89224365  0.08887628    -0.10900
C932        C  0.19842260  0.87533516  0.11837968    -0.12500
C933        C  0.23548476  0.87492866  0.95509294    -0.10900
C934        C  0.23930725  0.85624749  0.92553861    -0.12500
C935        C  0.16492369  0.90743109  0.00739237    -0.10900
C936        C  0.13141510  0.92092417  0.00218913    -0.12500
C937        C  0.73411619  0.20266009  0.05608110    -0.10900
C938        C  0.73147719  0.22725173  0.08080112    -0.12500
C939        C  0.72885051  0.18644051  0.89535980    -0.10900
C940        C  0.73228058  0.17047546  0.92618749    -0.12500
C941        C  0.79380215  0.15295975  0.00040525    -0.10900
C942        C  0.82608192  0.13628786  0.00468243    -0.12500
C943        C  0.81151704  0.82792328  0.10441151    -0.10900
C944        C  0.83207795  0.82298182  0.07605592    -0.12500
C945        C  0.84586655  0.78185124  0.94345194    -0.10900
C946        C  0.82893366  0.77448792  0.91265261    -0.12500
C947        C  0.86719834  0.88671325  0.99296444    -0.10900
C948        C  0.85630927  0.85486529  0.99697772    -0.12500
loop_ 
_geom_bond_atom_site_label_1 
_geom_bond_atom_site_label_2 
_geom_bond_distance 
_geom_bond_site_symmetry_2 
_ccdc_geom_bond_type 
N1            C5   1.359   1_554  A
N1            C2   1.352       .  A
N1          C948   1.418   1_554  S
C2            C3   1.378       .  A
C2          C944   1.437       .  S
C3            C4   1.372       .  A
C3            H6   1.082       .  S
C4            C5   1.380   1_554  A
C4            H7   1.083   1_554  S
C5          C945   1.439       .  S
N8           C12   1.364       .  A
N8            C9   1.361   1_556  A
N8          C941   1.430   1_556  S
C9           C10   1.377       .  A
C9          C937   1.445       .  S
C10          C11   1.366   1_554  A
C10          H13   1.083       .  S
C11          C12   1.379       .  A
C11          H14   1.083       .  S
C12         C940   1.447       .  S
N15          C19   1.358   1_554  A
N15          C16   1.352       .  A
N15         C935   1.419       .  S
C16          C17   1.380       .  A
C16         C931   1.434       .  S
C17          C18   1.371       .  A
C17          H20   1.083       .  S
C18          C19   1.378   1_554  A
C18          H21   1.083       .  S
C19         C933   1.437       .  S
N22          C26   1.366       .  A
N22          C23   1.357       .  A
N22         C929   1.423       .  S
C23          C24   1.378       .  A
C23         C927   1.437       .  S
C24          C25   1.366       .  A
C24          H27   1.083       .  S
C25          C26   1.378       .  A
C25          H28   1.083       .  S
C26         C925   1.442   1_545  S
N29          C33   1.357   1_655  A
N29          C30   1.357       .  A
N29         C924   1.426       .  S
C30          C31   1.376   1_655  A
C30         C919   1.450       .  S
C31          C32   1.372       .  A
C31          H34   1.082       .  S
C32          C33   1.385       .  A
C32          H35   1.078       .  S
C33         C921   1.461       .  S
N36          C40   1.352       .  A
N36          C37   1.347       .  A
N36         C917   1.414       .  S
C37          C38   1.381       .  A
C37         C913   1.429       .  S
C38          C39   1.373       .  A
C38          H41   1.083       .  S
C39          C40   1.378       .  A
C39          H42   1.083       .  S
C40         C915   1.430   1_655  S
N43          C47   1.351       .  A
N43          C44   1.347       .  A
N43         C911   1.407       .  S
C44          C45   1.381       .  A
C44         C909   1.434       .  S
C45          C46   1.377       .  A
C45          H48   1.083       .  S
C46          C47   1.381       .  A
C46          H49   1.083   1_545  S
C47         C907   1.437   1_545  S
N50          C54   1.359   1_655  A
N50          C51   1.359       .  A
N50         C906   1.428       .  S
C51          C52   1.379       .  A
C51         C903   1.444       .  S
C52          C53   1.366       .  A
C52          H55   1.083       .  S
C53          C54   1.377   1_655  A
C53          H56   1.083       .  S
C54         C901   1.437       .  S
N57          C61   1.366       .  A
N57          C58   1.358       .  A
N57         C899   1.424       .  S
C58          C59   1.378       .  A
C58         C898   1.443       .  S
C59          C60   1.367       .  A
C59          H62   1.083       .  S
C60          C61   1.378       .  A
C60          H63   1.083       .  S
C61         C896   1.443   1_545  S
N64          C68   1.369   1_655  A
N64          C65   1.361       .  A
N64         C889   1.436       .  S
C65          C66   1.376       .  A
C65         C892   1.441       .  S
C66          C67   1.364       .  A
C66          H69   1.083       .  S
C67          C68   1.380   1_655  A
C67          H70   1.083   1_655  S
C68         C893   1.452       .  S
Zr71         O72   2.439       .  S
Zr71         O73   2.430       .  S
Zr71         O74   2.380       .  S
Zr71         O77   2.362       .  S
Zr71         O79   2.367       .  S
Zr71         O80   2.383       .  S
Zr71         O81   2.394       .  S
Zr71         O82   2.399       .  S
O72         H128   0.990       .  S
O72         H136   0.990       .  S
O73          C93   1.281       .  A
O74          C95   1.272       .  A
O75         Zr85   2.505       .  S
O75          C94   1.298       .  A
O76         Zr84   2.489       .  S
O76          C95   1.295       .  A
O77          C94   1.270       .  A
O78         Zr86   2.439       .  S
O78          C93   1.284       .  A
O79         Zr84   2.381       .  S
O79         Zr86   2.368       .  S
O80         Zr85   2.399       .  S
O80         Zr86   2.363       .  S
O80         H115   0.965       .  S
O81         Zr84   2.402       .  S
O81        Zr101   2.407       .  S
O81         H118   0.966       .  S
O82         Zr85   2.409       .  S
O82        Zr101   2.407       .  S
Zr83        O108   2.440       .  S
Zr83        O102   2.418       .  S
Zr83        O110   2.354       .  S
Zr83         O98   2.352       .  S
Zr83         O89   2.391       .  S
Zr83         O90   2.392       .  S
Zr83         O91   2.368       .  S
Zr83         O92   2.373       .  S
Zr84        O103   2.436       .  S
Zr84         O96   2.433       .  S
Zr84         O97   2.478       .  S
Zr84         O90   2.395       .  S
Zr84         O91   2.393       .  S
Zr85         O87   2.435       .  S
Zr85        O109   2.437       .  S
Zr85        O111   2.527       .  S
Zr85         O89   2.393       .  S
Zr85         O92   2.388       .  S
Zr86        O112   2.436       .  S
Zr86        O113   2.435       .  S
Zr86         O88   2.435       .  S
Zr86         O89   2.395       .  S
Zr86         O90   2.396       .  S
O87         H124   0.990       .  S
O88         H119   0.990       .  S
O88         H133   0.990       .  S
O90         H116   0.966       .  S
O91        Zr101   2.368       .  S
O92        Zr101   2.374       .  S
O92         H117   0.967       .  S
C93         C883   1.441       .  S
C94         C879   1.436       .  S
C95         C881   1.440       .  S
O96         H132   0.990       .  S
O97          C99   1.292       .  A
O98          C99   1.267       .  A
C99         C885   1.424       .  S
O100       Zr101   2.435       .  S
O100        H129   0.990       .  S
Zr101       O104   2.435       .  S
Zr101       O105   2.439       .  S
Zr101       O106   2.447       .  S
O102        C107   1.279       .  A
O103        H120   0.990       .  S
O103        H135   0.990       .  S
O104        H121   0.990       .  S
O105        H125   0.990       .  S
O105        H134   0.990       .  S
O106        C107   1.285       .  A
C107        C888   1.437       .  S
O108        H127   0.990       .  S
O108        H131   0.990       .  S
O109        H123   0.990       .  S
O109        H130   0.990       .  S
O110        C114   1.268       .  A
O111        C114   1.303       .  A
O112        H122   0.990       .  S
O113        H126   0.990       .  S
C114        C894   1.446       .  S
N137        C141   1.361   1_545  A
N137        C138   1.354       .  A
N137        C875   1.421       .  S
C138        C139   1.378       .  A
C138        C887   1.439       .  S
C139        C140   1.370   1_545  A
C139        H142   1.083       .  S
C140        C141   1.381       .  A
C140        H143   1.083       .  S
C141        C877   1.446       .  S
Zr144       O145   2.440       .  S
Zr144       O146   2.406       .  S
Zr144       O147   2.388       .  S
Zr144       O150   2.383       .  S
Zr144       O152   2.376       .  S
Zr144       O153   2.387       .  S
Zr144       O154   2.396       .  S
Zr144       O155   2.392       .  S
O145        H201   0.990       .  S
O145        H209   0.990       .  S
O146        C166   1.277       .  A
O147        C168   1.275       .  A
O148       Zr158   2.503       .  S
O148        C167   1.299       .  A
O149       Zr157   2.473       .  S
O149        C168   1.291       .  A
O150        C167   1.274       .  A
O151       Zr159   2.442       .  S
O151        C166   1.286       .  A
O152       Zr157   2.385       .  S
O152       Zr159   2.363       .  S
O153       Zr158   2.378       .  S
O153       Zr159   2.363       .  S
O153        H188   0.964       .  S
O154       Zr157   2.411       .  S
O154       Zr174   2.398       .  S
O154        H191   0.967       .  S
O155       Zr158   2.399       .  S
O155       Zr174   2.392       .  S
Zr156       O181   2.441       .  S
Zr156       O175   2.422       .  S
Zr156       O183   2.370       .  S
Zr156       O171   2.389       .  S
Zr156       O162   2.394       .  S
Zr156       O163   2.394       .  S
Zr156       O164   2.371       .  S
Zr156       O165   2.386       .  S
Zr157       O176   2.437       .  S
Zr157       O169   2.434       .  S
Zr157       O170   2.494       .  S
Zr157       O163   2.397       .  S
Zr157       O164   2.371       .  S
Zr158       O160   2.435       .  S
Zr158       O182   2.435       .  S
Zr158       O184   2.488       .  S
Zr158       O162   2.411       .  S
Zr158       O165   2.386       .  S
Zr159       O185   2.435       .  S
Zr159       O186   2.436       .  S
Zr159       O161   2.437       .  S
Zr159       O162   2.407       .  S
Zr159       O163   2.398       .  S
O160        H197   0.990       .  S
O161        H192   0.990       .  S
O161        H206   0.990       .  S
O163        H189   0.967       .  S
O164       Zr174   2.360       .  S
O165       Zr174   2.371       .  S
O165        H190   0.964       .  S
C166        C870   1.424       .  S
C167        C871   1.442       .  S
C168        C874   1.432       .  S
O169        H205   0.990       .  S
O170        C172   1.295       .  A
O171        C172   1.271       .  A
C172        C878   1.443       .  S
O173       Zr174   2.440       .  S
O173        H202   0.990       .  S
Zr174       O177   2.437       .  S
Zr174       O178   2.440       .  S
Zr174       O179   2.431       .  S
O175        C180   1.280       .  A
O176        H193   0.990       .  S
O176        H208   0.990       .  S
O177        H194   0.990       .  S
O178        H198   0.990       .  S
O178        H207   0.990       .  S
O179        C180   1.284       .  A
C180        C932   1.431       .  S
O181        H200   0.991       .  S
O181        H204   0.990       .  S
O182        H196   0.990       .  S
O182        H203   0.990       .  S
O183        C187   1.271       .  A
O184        C187   1.295       .  A
O185        H195   0.989       .  S
O186        H199   0.990       .  S
C187        C902   1.430       .  S
Zr210       O211   2.439       .  S
Zr210       O212   2.426       .  S
Zr210       O213   2.381       .  S
Zr210       O216   2.384       .  S
Zr210       O218   2.376       .  S
Zr210       O219   2.382       .  S
Zr210       O220   2.400       .  S
Zr210       O221   2.397       .  S
O211        H267   0.990       .  S
O211        H275   0.990       .  S
O212        C232   1.281       .  A
O213        C234   1.273       .  A
O214       Zr224   2.501       .  S
O214        C233   1.298       .  A
O215       Zr223   2.486       .  S
O215        C234   1.296       .  A
O216        C233   1.274       .  A
O217       Zr225   2.448       .  S
O217        C232   1.286       .  A
O218       Zr223   2.387       .  S
O218       Zr225   2.364       .  S
O219       Zr224   2.391       .  S
O219       Zr225   2.354       .  S
O219        H254   0.964       .  S
O220       Zr223   2.401       .  S
O220       Zr240   2.402       .  S
O220        H257   0.967       .  S
O221       Zr224   2.401       .  S
O221       Zr240   2.407       .  S
Zr222       O247   2.436       .  S
Zr222       O241   2.409       .  S
Zr222       O249   2.382       .  S
Zr222       O237   2.386       .  S
Zr222       O228   2.394       .  S
Zr222       O229   2.396       .  S
Zr222       O230   2.370       .  S
Zr222       O231   2.380       .  S
Zr223       O242   2.436       .  S
Zr223       O235   2.435       .  S
Zr223       O236   2.497       .  S
Zr223       O229   2.406       .  S
Zr223       O230   2.375       .  S
Zr224       O226   2.434       .  S
Zr224       O248   2.436       .  S
Zr224       O250   2.498       .  S
Zr224       O228   2.409       .  S
Zr224       O231   2.390       .  S
Zr225       O251   2.435       .  S
Zr225       O252   2.433       .  S
Zr225       O227   2.434       .  S
Zr225       O228   2.408       .  S
Zr225       O229   2.401       .  S
O226        H263   0.990       .  S
O227        H258   0.990       .  S
O227        H272   0.990       .  S
O229        H255   0.966       .  S
O230       Zr240   2.361       .  S
O231       Zr240   2.368       .  S
O231        H256   0.965       .  S
C232        C897   1.442       .  S
C233        C938   1.440       .  S
C234        C891   1.436       .  S
O235        H271   0.990       .  S
O236        C238   1.297       .  A
O237        C238   1.274       .  A
C238        C864   1.445       .  S
O239       Zr240   2.438       .  S
O239        H268   0.990       .  S
Zr240       O243   2.438       .  S
Zr240       O244   2.439       .  S
Zr240       O245   2.455       .  S
O241        C246   1.277       .  A
O242        H259   0.990       .  S
O242        H274   0.990       .  S
O243        H260   0.990       .  S
O244        H264   0.990       .  S
O244        H273   0.990       .  S
O245        C246   1.288       .  A
C246        C866   1.437       .  S
O247        H266   0.990       .  S
O247        H270   0.990       .  S
O248        H262   0.990       .  S
O248        H269   0.990       .  S
O249        C253   1.273       .  A
O250        C253   1.297       .  A
O251        H261   0.990       .  S
O252        H265   0.989       .  S
C253        C867   1.440       .  S
Zr276       O277   2.438       .  S
Zr276       O278   2.416       .  S
Zr276       O279   2.393       .  S
Zr276       O282   2.390       .  S
Zr276       O284   2.376       .  S
Zr276       O285   2.390       .  S
Zr276       O286   2.398       .  S
Zr276       O287   2.399       .  S
O277        H333   0.990       .  S
O277        H341   0.990       .  S
O278        C298   1.279       .  A
O279        C300   1.274       .  A
O280       Zr290   2.496       .  S
O280        C299   1.292       .  A
O281       Zr289   2.478       .  S
O281        C300   1.293       .  A
O282        C299   1.267       .  A
O283       Zr291   2.451       .  S
O283        C298   1.287       .  A
O284       Zr289   2.386       .  S
O284       Zr291   2.368       .  S
O285       Zr290   2.405       .  S
O285       Zr291   2.353       .  S
O285        H320   0.964       .  S
O286       Zr289   2.408       .  S
O286       Zr306   2.407       .  S
O286        H323   0.966       .  S
O287       Zr290   2.411       .  S
O287       Zr306   2.395       .  S
Zr288       O313   2.440       .  S
Zr288       O307   2.418       .  S
Zr288       O315   2.376       .  S
Zr288       O303   2.390       .  S
Zr288       O294   2.392       .  S
Zr288       O295   2.401       .  S
Zr288       O296   2.378       .  S
Zr288       O297   2.385       .  S
Zr289       O308   2.436       .  S
Zr289       O301   2.435       .  S
Zr289       O302   2.487       .  S
Zr289       O295   2.407       .  S
Zr289       O296   2.381       .  S
Zr290       O292   2.436       .  S
Zr290       O314   2.435       .  S
Zr290       O316   2.500       .  S
Zr290       O294   2.407       .  S
Zr290       O297   2.395       .  S
Zr291       O317   2.436       .  S
Zr291       O318   2.437       .  S
Zr291       O293   2.435       .  S
Zr291       O294   2.408       .  S
Zr291       O295   2.399       .  S
O292        H329   0.990       .  S
O293        H324   0.990       .  S
O293        H338   0.990       .  S
O295        H321   0.967       .  S
O296       Zr306   2.361       .  S
O297       Zr306   2.369       .  S
O297        H322   0.967       .  S
C298        C858   1.436       .  S
C299        C859   1.449       .  S
C300        C861   1.438       .  S
O301        H337   0.990       .  S
O302        C304   1.293       .  A
O303        C304   1.271       .  A
C304        C904   1.440       .  S
O305       Zr306   2.440       .  S
O305        H334   0.991       .  S
Zr306       O309   2.438       .  S
Zr306       O310   2.441       .  S
Zr306       O311   2.440       .  S
O307        C312   1.279       .  A
O308        H325   0.990       .  S
O308        H340   0.990       .  S
O309        H326   0.990       .  S
O310        H330   0.990       .  S
O310        H339   0.990       .  S
O311        C312   1.285       .  A
C312        C943   1.433       .  S
O313        H332   0.990       .  S
O313        H336   0.990       .  S
O314        H328   0.990       .  S
O314        H335   0.990       .  S
O315        C319   1.271       .  A
O316        C319   1.298       .  A
O317        H327   0.990       .  S
O318        H331   0.990       .  S
C319        C895   1.438       .  S
N342        C346   1.357       .  A
N342        C343   1.354   1_556  A
N342        C854   1.428   1_556  S
C343        C344   1.376       .  A
C343        C886   1.437       .  S
C344        C345   1.365   1_554  A
C344        H347   1.083       .  S
C345        C346   1.382       .  A
C345        H348   1.084       .  S
C346        C855   1.449       .  S
Zr349       O350   2.450       .  S
Zr349       O351   2.422       .  S
Zr349       O352   2.396       .  S
Zr349       O355   2.364       .  S
Zr349       O357   2.375       .  S
Zr349       O358   2.392       .  S
Zr349       O359   2.398       .  S
Zr349       O360   2.389       .  S
O350        H406   0.989       .  S
O350        H414   0.989       .  S
O351        C371   1.280       .  A
O352        C373   1.267       .  A
O353       Zr363   2.513       .  S
O353        C372   1.300       .  A
O354       Zr362   2.502       .  S
O354        C373   1.291       .  A
O355        C372   1.272       .  A
O356       Zr364   2.416       .  S
O356        C371   1.280       .  A
O357       Zr362   2.386       .  S
O357       Zr364   2.358       .  S
O358       Zr363   2.394       .  S
O358       Zr364   2.355       .  S
O358        H393   0.965       .  S
O359       Zr362   2.412       .  S
O359       Zr379   2.381       .  S
O359        H396   0.965       .  S
O360       Zr363   2.404       .  S
O360       Zr379   2.387       .  S
Zr361       O386   2.440       .  S
Zr361       O380   2.425       .  S
Zr361       O388   2.353       .  S
Zr361       O376   2.379       .  S
Zr361       O367   2.389       .  S
Zr361       O368   2.399       .  S
Zr361       O369   2.374       .  S
Zr361       O370   2.388       .  S
Zr362       O381   2.436       .  S
Zr362       O374   2.435       .  S
Zr362       O375   2.504       .  S
Zr362       O368   2.412       .  S
Zr362       O369   2.388       .  S
Zr363       O365   2.436       .  S
Zr363       O387   2.434       .  S
Zr363       O389   2.527       .  S
Zr363       O367   2.400       .  S
Zr363       O370   2.385       .  S
Zr364       O390   2.434       .  S
Zr364       O391   2.435       .  S
Zr364       O366   2.432       .  S
Zr364       O367   2.394       .  S
Zr364       O368   2.385       .  S
O365        H402   0.990       .  S
O366        H397   0.990       .  S
O366        H411   0.990       .  S
O368        H394   0.966       .  S
O369       Zr379   2.363       .  S
O370       Zr379   2.366       .  S
O370        H395   0.965       .  S
C371        C910   1.425       .  S
C372        C856   1.436       .  S
C373        C922   1.447       .  S
O374        H410   0.990       .  S
O375        C377   1.291       .  A
O376        C377   1.263       .  A
C377        C847   1.446       .  S
O378       Zr379   2.437       .  S
O378        H407   0.990       .  S
Zr379       O382   2.433       .  S
Zr379       O383   2.438       .  S
Zr379       O384   2.410       .  S
O380        C385   1.281       .  A
O381        H398   0.990       .  S
O381        H413   0.990       .  S
O382        H399   0.990       .  S
O383        H403   0.990       .  S
O383        H412   0.990       .  S
O384        C385   1.280       .  A
C385        C849   1.425       .  S
O386        H405   0.990       .  S
O386        H409   0.990       .  S
O387        H401   0.990       .  S
O387        H408   0.990       .  S
O388        C392   1.269       .  A
O389        C392   1.303       .  A
O390        H400   0.990       .  S
O391        H404   0.990       .  S
C392        C852   1.443       .  S
Zr415       O416   2.439       .  S
Zr415       O417   2.415       .  S
Zr415       O418   2.376       .  S
Zr415       O421   2.378       .  S
Zr415       O423   2.373       .  S
Zr415       O424   2.380       .  S
Zr415       O425   2.394       .  S
Zr415       O426   2.397       .  S
O416        H472   0.991       .  S
O416        H480   0.990       .  S
O417        C437   1.278       .  A
O418        C439   1.271       .  A
O419       Zr429   2.468       .  S
O419        C438   1.291       .  A
O420       Zr428   2.482       .  S
O420        C439   1.293       .  A
O421        C438   1.273       .  A
O422       Zr430   2.445       .  S
O422        C437   1.285       .  A
O423       Zr428   2.386       .  S
O423       Zr430   2.370       .  S
O424       Zr429   2.382       .  S
O424       Zr430   2.363       .  S
O424        H459   0.965       .  S
O425       Zr428   2.399       .  S
O425       Zr445   2.402       .  S
O425        H462   0.967       .  S
O426       Zr429   2.405       .  S
O426       Zr445   2.405       .  S
Zr427       O452   2.436       .  S
Zr427       O446   2.416       .  S
Zr427       O454   2.391       .  S
Zr427       O442   2.376       .  S
Zr427       O433   2.391       .  S
Zr427       O434   2.400       .  S
Zr427       O435   2.379       .  S
Zr427       O436   2.378       .  S
Zr428       O447   2.439       .  S
Zr428       O440   2.435       .  S
Zr428       O441   2.478       .  S
Zr428       O434   2.401       .  S
Zr428       O435   2.387       .  S
Zr429       O431   2.434       .  S
Zr429       O453   2.434       .  S
Zr429       O455   2.469       .  S
Zr429       O433   2.399       .  S
Zr429       O436   2.381       .  S
Zr430       O456   2.436       .  S
Zr430       O457   2.436       .  S
Zr430       O432   2.435       .  S
Zr430       O433   2.407       .  S
Zr430       O434   2.403       .  S
O431        H468   0.990       .  S
O432        H463   0.990       .  S
O432        H477   0.990       .  S
O434        H460   0.967       .  S
O435       Zr445   2.366       .  S
O436       Zr445   2.361       .  S
O436        H461   0.966       .  S
C437        C908   1.434       .  S
C438        C916   1.425       .  S
C439        C934   1.433       .  S
O440        H476   0.990       .  S
O441        C443   1.293       .  A
O442        C443   1.273       .  A
C443        C844   1.431       .  S
O444       Zr445   2.434       .  S
O444        H473   0.990       .  S
Zr445       O448   2.433       .  S
Zr445       O449   2.437       .  S
Zr445       O450   2.448       .  S
O446        C451   1.279       .  A
O447        H464   0.990       .  S
O447        H479   0.989       .  S
O448        H465   0.989       .  S
O449        H469   0.990       .  S
O449        H478   0.990       .  S
O450        C451   1.286       .  A
C451        C845   1.436       .  S
O452        H471   0.990       .  S
O452        H475   0.990       .  S
O453        H467   0.990       .  S
O453        H474   0.990       .  S
O454        C458   1.275       .  A
O455        C458   1.291       .  A
O456        H466   0.990       .  S
O457        H470   0.989       .  S
C458        C841   1.431       .  S
Zr481       O482   2.438       .  S
Zr481       O483   2.417       .  S
Zr481       O484   2.378       .  S
Zr481       O487   2.353       .  S
Zr481       O489   2.367       .  S
Zr481       O490   2.383       .  S
Zr481       O491   2.390       .  S
Zr481       O492   2.393       .  S
O482        H538   0.990       .  S
O482        H546   0.990       .  S
O483        C503   1.278       .  A
O484        C505   1.272       .  A
O485       Zr495   2.508       .  S
O485        C504   1.299       .  A
O486       Zr494   2.497       .  S
O486        C505   1.297       .  A
O487        C504   1.268       .  A
O488       Zr496   2.434       .  S
O488        C503   1.284       .  A
O489       Zr494   2.383       .  S
O489       Zr496   2.370       .  S
O490       Zr495   2.402       .  S
O490       Zr496   2.367       .  S
O490        H525   0.966       .  S
O491       Zr494   2.401       .  S
O491       Zr511   2.397       .  S
O491        H528   0.966       .  S
O492       Zr495   2.407       .  S
O492       Zr511   2.392       .  S
Zr493       O518   2.440       .  S
Zr493       O512   2.421       .  S
Zr493       O520   2.361       .  S
Zr493       O508   2.359       .  S
Zr493       O499   2.391       .  S
Zr493       O500   2.392       .  S
Zr493       O501   2.375       .  S
Zr493       O502   2.378       .  S
Zr494       O513   2.434       .  S
Zr494       O506   2.436       .  S
Zr494       O507   2.496       .  S
Zr494       O500   2.405       .  S
Zr494       O501   2.384       .  S
Zr495       O497   2.436       .  S
Zr495       O519   2.435       .  S
Zr495       O521   2.532       .  S
Zr495       O499   2.400       .  S
Zr495       O502   2.389       .  S
Zr496       O522   2.439       .  S
Zr496       O523   2.438       .  S
Zr496       O498   2.437       .  S
Zr496       O499   2.402       .  S
Zr496       O500   2.401       .  S
O497        H534   0.990       .  S
O498        H529   0.990       .  S
O498        H543   0.990       .  S
O500        H526   0.966       .  S
O501       Zr511   2.372       .  S
O502       Zr511   2.370       .  S
O502        H527   0.964       .  S
C503        C928   1.434       .  S
C504        C920   1.436       .  S
C505        C939   1.444       .  S
O506        H542   0.990       .  S
O507        C509   1.296       .  A
O508        C509   1.269       .  A
C509        C837   1.434       .  S
O510       Zr511   2.435       .  S
O510        H539   0.990       .  S
Zr511       O514   2.435       .  S
Zr511       O515   2.437       .  S
Zr511       O516   2.426       .  S
O512        C517   1.279       .  A
O513        H530   0.990       .  S
O513        H545   0.990       .  S
O514        H531   0.990       .  S
O515        H535   0.990       .  S
O515        H544   0.990       .  S
O516        C517   1.282       .  A
C517        C839   1.431       .  S
O518        H537   0.990       .  S
O518        H541   0.990       .  S
O519        H533   0.990       .  S
O519        H540   0.990       .  S
O520        C524   1.269       .  A
O521        C524   1.304       .  A
O522        H532   0.990       .  S
O523        H536   0.990       .  S
C524        C835   1.449       .  S
Zr547       O548   2.439       .  S
Zr547       O549   2.414       .  S
Zr547       O550   2.374       .  S
Zr547       O553   2.380       .  S
Zr547       O555   2.377       .  S
Zr547       O556   2.380       .  S
Zr547       O557   2.397       .  S
Zr547       O558   2.395       .  S
O548        H604   0.990       .  S
O548        H612   0.990       .  S
O549        C569   1.278       .  A
O550        C571   1.271       .  A
O551       Zr561   2.505       .  S
O551        C570   1.298       .  A
O552       Zr560   2.478       .  S
O552        C571   1.292       .  A
O553        C570   1.272       .  A
O554       Zr562   2.431       .  S
O554        C569   1.284       .  A
O555       Zr560   2.384       .  S
O555       Zr562   2.374       .  S
O556       Zr561   2.381       .  S
O556       Zr562   2.358       .  S
O556        H591   0.964       .  S
O557       Zr560   2.406       .  S
O557       Zr577   2.402       .  S
O557        H594   0.966       .  S
O558       Zr561   2.398       .  S
O558       Zr577   2.405       .  S
Zr559       O584   2.439       .  S
Zr559       O578   2.406       .  S
Zr559       O586   2.387       .  S
Zr559       O574   2.399       .  S
Zr559       O565   2.393       .  S
Zr559       O566   2.395       .  S
Zr559       O567   2.377       .  S
Zr559       O568   2.389       .  S
Zr560       O579   2.435       .  S
Zr560       O572   2.435       .  S
Zr560       O573   2.483       .  S
Zr560       O566   2.401       .  S
Zr560       O567   2.379       .  S
Zr561       O563   2.437       .  S
Zr561       O585   2.434       .  S
Zr561       O587   2.475       .  S
Zr561       O565   2.411       .  S
Zr561       O568   2.399       .  S
Zr562       O588   2.440       .  S
Zr562       O589   2.435       .  S
Zr562       O564   2.432       .  S
Zr562       O565   2.399       .  S
Zr562       O566   2.389       .  S
O563        H600   0.990       .  S
O564        H595   0.990       .  S
O564        H609   0.990       .  S
O566        H592   0.967       .  S
O567       Zr577   2.357       .  S
O568       Zr577   2.370       .  S
O568        H593   0.964       .  S
C569        C914   1.425       .  S
C570        C926   1.441       .  S
C571        C946   1.433       .  S
O572        H608   0.990       .  S
O573        C575   1.293       .  A
O574        C575   1.274       .  A
C575        C832   1.441       .  S
O576       Zr577   2.438       .  S
O576        H605   0.990       .  S
Zr577       O580   2.436       .  S
Zr577       O581   2.438       .  S
Zr577       O582   2.437       .  S
O578        C583   1.276       .  A
O579        H596   0.990       .  S
O579        H611   0.990       .  S
O580        H597   0.990       .  S
O581        H601   0.990       .  S
O581        H610   0.990       .  S
O582        C583   1.284       .  A
C583        C833   1.428       .  S
O584        H603   0.990       .  S
O584        H607   0.990       .  S
O585        H599   0.990       .  S
O585        H606   0.990       .  S
O586        C590   1.275       .  A
O587        C590   1.293       .  A
O588        H598   0.990       .  S
O589        H602   0.990       .  S
C590        C829   1.432       .  S
N613        C617   1.353       .  A
N613        C614   1.348       .  A
N613        C827   1.415       .  S
C614        C615   1.380       .  A
C614        C834   1.431       .  S
C615        C616   1.375       .  A
C615        H618   1.083       .  S
C616        C617   1.380       .  A
C616        H619   1.082       .  S
C617        C843   1.437       .  S
N620        C624   1.353       .  A
N620        C621   1.347       .  A
N620        C825   1.405       .  S
C621        C622   1.380       .  A
C621        C850   1.435       .  S
C622        C623   1.375       .  A
C622        H625   1.083       .  S
C623        C624   1.381       .  A
C623        H626   1.082       .  S
C624        C846   1.438       .  S
N627        C631   1.359       .  A
N627        C628   1.355       .  A
N627        C824   1.428       .  S
C628        C629   1.377       .  A
C628        C838   1.444       .  S
C629        C630   1.367       .  A
C629        H632   1.083       .  S
C630        C631   1.384       .  A
C630        H633   1.083       .  S
C631        C851   1.458       .  S
N634        C638   1.359       .  A
N634        C635   1.353       .  A
N634        C821   1.418       .  S
C635        C636   1.380       .  A
C635        C840   1.436       .  S
C636        C637   1.372       .  A
C636        H639   1.083       .  S
C637        C638   1.380       .  A
C637        H640   1.083       .  S
C638        C831   1.443       .  S
N641        C645   1.362       .  A
N641        C642   1.359       .  A
N641        C819   1.431       .  S
C642        C643   1.378       .  A
C642        C868   1.446       .  S
C643        C644   1.368       .  A
C643        H646   1.083       .  S
C644        C645   1.381       .  A
C644        H647   1.083       .  S
C645        C882   1.445       .  S
N648        C652   1.359       .  A
N648        C649   1.356       .  A
N648        C817   1.422       .  S
C649        C650   1.379       .  A
C649        C865   1.438       .  S
C650        C651   1.369       .  A
C650        H653   1.083       .  S
C651        C652   1.380       .  A
C651        H654   1.083       .  S
C652        C862   1.441       .  S
N655        C659   1.354       .  A
N655        C656   1.363       .  A
N655        C816   1.427       .  S
C656        C657   1.382       .  A
C656        C860   1.454       .  S
C657        C658   1.368       .  A
C657        H660   1.083       .  S
C658        C659   1.376       .  A
C658        H661   1.083       .  S
C659        C873   1.435       .  S
N662        C666   1.366       .  A
N662        C663   1.360       .  A
N662        C813   1.424       .  S
C663        C664   1.379       .  A
C663        C884   1.442       .  S
C664        C665   1.368       .  A
C664        H667   1.083       .  S
C665        C666   1.378       .  A
C665        H668   1.083       .  S
C666        C872   1.445       .  S
N669        C673   1.359       .  A
N669        C670   1.355       .  A
N669        C811   1.421       .  S
C670        C671   1.380       .  A
C670        C857   1.438       .  S
C671        C672   1.370       .  A
C671        H674   1.082       .  S
C672        C673   1.379       .  A
C672        H675   1.083       .  S
C673        C830   1.436       .  S
N676        C680   1.370       .  A
N676        C677   1.362       .  A
N676        C810   1.436       .  S
C677        C678   1.376       .  A
C677        C863   1.449       .  S
C678        C679   1.366       .  A
C678        H681   1.083       .  S
C679        C680   1.381       .  A
C679        H682   1.083       .  S
C680        C836   1.457       .  S
N683        C687   1.353       .  A
N683        C684   1.347       .  A
N683        C807   1.414       .  S
C684        C685   1.381       .  A
C684        C869   1.429       .  S
C685        C686   1.375       .  A
C685        H688   1.083       .  S
C686        C687   1.380       .  A
C686        H689   1.083       .  S
C687        C842   1.435       .  S
N690        C694   1.357       .  A
N690        C691   1.356       .  A
N690        C805   1.427       .  S
C691        C692   1.377       .  A
C691        C880   1.447       .  S
C692        C693   1.370       .  A
C692        H695   1.083       .  S
C693        C694   1.386       .  A
C693        H696   1.080       .  S
C694        C848   1.459       .  S
O697       Zr733   2.496   1_566  S
O697        C708   1.302       .  A
O698       Zr732   2.442   1_565  S
O698        C709   1.291       .  A
O699       Zr705   2.471       .  S
O699        C710   1.297       .  A
O700       Zr705   2.452   1_554  S
O700        C711   1.293       .  A
O701       Zr735   2.504   1_565  S
O701        C711   1.304       .  A
O702       Zr734   2.432   1_565  S
O702        C710   1.289       .  A
O703       Zr705   2.483   1_455  S
O703        C709   1.299   1_556  A
O704       Zr705   2.427       .  S
O704        C708   1.289       .  A
Zr705       O706   2.345   1_656  S
Zr705       O707   2.361       .  S
Zr705       O715   2.367   1_556  S
Zr705       O713   2.336   1_655  S
O706       Zr732   2.355   1_565  S
O706       Zr735   2.354   1_465  S
O707       Zr733   2.347   1_566  S
O707       Zr734   2.333   1_565  S
C708        C947   1.454       .  S
C709        C936   1.458       .  S
C710        C918   1.448       .  S
C711        C905   1.471       .  S
H712        O713   0.965       .  S
O713       Zr732   2.345   1_566  S
O713       Zr734   2.348   1_465  S
H714        O715   0.966       .  S
O715       Zr733   2.363   1_565  S
O715       Zr735   2.353   1_565  S
O716       Zr732   2.457       .  S
O716        C739   1.293       .  A
O717       Zr733   2.475       .  S
O717        C740   1.298       .  A
O718       Zr734   2.427   1_455  S
O718        C741   1.288       .  A
O719       Zr735   2.497   1_455  S
O719        C742   1.302       .  A
O720       Zr735   2.500       .  S
O720        C743   1.303       .  A
O721       Zr734   2.461       .  S
O721        C744   1.294       .  A
O722       Zr736   2.518   1_556  S
O722        C745   1.307       .  A
O723       Zr736   2.534       .  S
O723        C746   1.311       .  A
O724       Zr734   2.425       .  S
O724        C745   1.288       .  A
O725       Zr735   2.453       .  S
O725        C746   1.294       .  A
O726       Zr732   2.462   1_556  S
O726        C741   1.294       .  A
O727       Zr733   2.474   1_556  S
O727        C744   1.296       .  A
O728       Zr733   2.438       .  S
O728        C743   1.290       .  A
O729       Zr732   2.436       .  S
O729        C742   1.291       .  A
O730       Zr736   2.493   1_455  S
O730        C739   1.302       .  A
O731       Zr736   2.498       .  S
O731        C740   1.303       .  A
Zr732       O738   2.342   1_554  S
Zr732       O750   2.353       .  S
Zr733       O737   2.368       .  S
Zr733       O748   2.353   1_554  S
Zr734       O738   2.350   1_655  S
Zr734       O748   2.339       .  S
Zr735       O737   2.369       .  S
Zr735       O750   2.376   1_655  S
Zr736       O737   2.372       .  S
Zr736       O738   2.354   1_654  S
Zr736       O750   2.368   1_655  S
Zr736       O748   2.375   1_554  S
C739        C853   1.470       .  S
C740        C942   1.474       .  S
C741        C912   1.439       .  S
C742        C876   1.461       .  S
C743        C900   1.463       .  S
C744        C930   1.464       .  S
C745        C923   1.465       .  S
C746        C890   1.481       .  S
H747        O748   0.965       .  S
H749        O750   0.965       .  S
O751       Zr787   2.482       .  S
O751        C762   1.298       .  A
O752       Zr786   2.508       .  S
O752        C763   1.305       .  A
O753       Zr759   2.442       .  S
O753        C764   1.290       .  A
O754       Zr759   2.451       .  S
O754        C765   1.292       .  A
O755       Zr789   2.473       .  S
O755        C765   1.296       .  A
O756       Zr788   2.442       .  S
O756        C764   1.291       .  A
O757       Zr759   2.448       .  S
O757        C763   1.292       .  A
O758       Zr759   2.427       .  S
O758        C762   1.288       .  A
Zr759       O760   2.342       .  S
Zr759       O761   2.343       .  S
Zr759       O769   2.347       .  S
Zr759       O767   2.350       .  S
O760       Zr786   2.369       .  S
O760       Zr789   2.357       .  S
O761       Zr787   2.333       .  S
O761       Zr788   2.337       .  S
C762        C828   1.449       .  S
C763        C823   1.469       .  S
C764        C826   1.437       .  S
C765        C822   1.457       .  S
H766        O767   0.965       .  S
O767       Zr786   2.362       .  S
O767       Zr788   2.350       .  S
H768        O769   0.966       .  S
O769       Zr787   2.360       .  S
O769       Zr789   2.345       .  S
O770       Zr786   2.520       .  S
O770        C793   1.308       .  A
O771       Zr787   2.459       .  S
O771        C794   1.295       .  A
O772       Zr788   2.452       .  S
O772        C795   1.293       .  A
O773       Zr789   2.462       .  S
O773        C796   1.295       .  A
O774       Zr789   2.507       .  S
O774        C797   1.304       .  A
O775       Zr788   2.440       .  S
O775        C798   1.290       .  A
O776       Zr790   2.501       .  S
O776        C799   1.303       .  A
O777       Zr790   2.498       .  S
O777        C800   1.302       .  A
O778       Zr788   2.441       .  S
O778        C799   1.291       .  A
O779       Zr789   2.440       .  S
O779        C800   1.291       .  A
O780       Zr786   2.506       .  S
O780        C795   1.304       .  A
O781       Zr787   2.466       .  S
O781        C798   1.295       .  A
O782       Zr787   2.419       .  S
O782        C797   1.287       .  A
O783       Zr786   2.519       .  S
O783        C796   1.308       .  A
O784       Zr790   2.448       .  S
O784        C793   1.293       .  A
O785       Zr790   2.494       .  S
O785        C794   1.302       .  A
Zr786       O792   2.364       .  S
Zr786       O804   2.377       .  S
Zr787       O791   2.356       .  S
Zr787       O802   2.357       .  S
Zr788       O792   2.345       .  S
Zr788       O802   2.354       .  S
Zr789       O791   2.349       .  S
Zr789       O804   2.375       .  S
Zr790       O791   2.349       .  S
Zr790       O792   2.364       .  S
Zr790       O804   2.373       .  S
Zr790       O802   2.361       .  S
C793        C820   1.475       .  S
C794        C815   1.470       .  S
C795        C806   1.469       .  S
C796        C809   1.482       .  S
C797        C812   1.458       .  S
C798        C808   1.449       .  S
C799        C814   1.465       .  S
C800        C818   1.462       .  S
H801        O802   0.966       .  S
H803        O804   0.965       .  S
C805        C806   1.226       .  T
C807        C808   1.214       .  T
C809        C810   1.235       .  T
C811        C812   1.221       .  T
C813        C814   1.224       .  T
C815        C816   1.227       .  T
C817        C818   1.222       .  T
C819        C820   1.230       .  T
C821        C822   1.218       .  T
C823        C824   1.227       .  T
C825        C826   1.207       .  T
C827        C828   1.215       .  T
C829        C830   1.205       .  T
C831        C832   1.210       .  T
C833        C834   1.201       .  T
C835        C836   1.218       .  T
C837        C838   1.209       .  T
C839        C840   1.203       .  T
C841        C842   1.204       .  T
C843        C844   1.205       .  T
C845        C846   1.206       .  T
C847        C848   1.217       .  T
C849        C850   1.200       .  T
C851        C852   1.217       .  T
C853        C854   1.227       .  T
C855        C856   1.212       .  T
C857        C858   1.206       .  T
C859        C860   1.216       .  T
C861        C862   1.208       .  T
C863        C864   1.213       .  T
C865        C866   1.206       .  T
C867        C868   1.211       .  T
C869        C870   1.198       .  T
C871        C872   1.212       .  T
C873        C874   1.204       .  T
C875        C876   1.222       .  T
C877        C878   1.212       .  T
C879        C880   1.211       .  T
C881        C882   1.211       .  T
C883        C884   1.209       .  T
C885        C886   1.204       .  T
C887        C888   1.206       .  T
C889        C890   1.234       .  T
C891        C892   1.208       .  T
C893        C894   1.216       .  T
C895        C896   1.211       .  T
C897        C898   1.209       .  T
C899        C900   1.224       .  T
C901        C902   1.206       .  T
C903        C904   1.210       .  T
C905        C906   1.228       .  T
C907        C908   1.205       .  T
C909        C910   1.201       .  T
C911        C912   1.208       .  T
C913        C914   1.199       .  T
C915        C916   1.201       .  T
C917        C918   1.214       .  T
C919        C920   1.212       .  T
C921        C922   1.217       .  T
C923        C924   1.225       .  T
C925        C926   1.211       .  T
C927        C928   1.205       .  T
C929        C930   1.223       .  T
C931        C932   1.203       .  T
C933        C934   1.206       .  T
C935        C936   1.220       .  T
C937        C938   1.211       .  T
C939        C940   1.212       .  T
C941        C942   1.229       .  T
C943        C944   1.204       .  T
C945        C946   1.207       .  T
C947        C948   1.218       .  T
