geometry optimzed in LAMMPS
_audit_creation_date              2020-12-01 
_audit_creation_method            'lammps2cif' 
_symmetry_space_group_name_H-M    'P1' 
_symmetry_Int_Tables_number       1 
_symmetry_cell_setting            triclinic 
loop_ 
_symmetry_equiv_pos_as_xyz 
  x,y,z 
_cell_length_a                    41.77335008 
_cell_length_b                    41.873068520295845 
_cell_length_c                    83.6796607479375 
_cell_angle_alpha                 90.00254894936872 
_cell_angle_beta                  90.02450311126948 
_cell_angle_gamma                 89.73931549797845 
loop_ 
_atom_site_label 
_atom_site_type_symbol 
_atom_site_fract_x 
_atom_site_fract_y 
_atom_site_fract_z 
_atom_site_charge 
O1          O  0.00424539  0.08159177  0.81574899    -0.57500
C2          C  0.01643115  0.17880709  0.81374433     0.75200
O3          O  0.09795000  0.11449764  0.83156160    -0.58600
C4          C  0.02010455  0.05576003  0.81564696     0.75100
C5          C  0.07967636  0.12196198  0.78305280     0.77500
Cd6        Cd  0.05019798  0.11799468  0.81422899     1.37500
O7          O  0.00130373  0.15267329  0.81433131    -0.57500
O8          O  0.05127974  0.11239979  0.78507403    -0.56300
C9          C  0.08338876  0.12044609  0.84449795     0.77500
O10         O  0.09542718  0.12778234  0.79564150    -0.58700
O11         O  0.04658416  0.17626248  0.81327667    -0.57100
O12         O  0.05021533  0.05880551  0.81485476    -0.57100
O13         O  0.05349504  0.12477863  0.84332230    -0.56300
O14         O  0.14399103  0.23642645  0.68777258    -0.57500
C15         C  0.04653532  0.22118931  0.68769291     0.75200
O16         O  0.11042536  0.14289867  0.66968978    -0.58600
C17         C  0.16999319  0.22090554  0.68668908     0.75100
C18         C  0.10828489  0.15865353  0.71837867     0.77500
Cd19       Cd  0.10856113  0.18963901  0.68755041     1.37500
O20         O  0.07241594  0.23677916  0.68808489    -0.57500
O21         O  0.11517857  0.18782455  0.71663626    -0.56300
C22         C  0.11002595  0.15886225  0.65682126     0.77500
O23         O  0.10295130  0.14319044  0.70565849    -0.58700
O24         O  0.04960461  0.19114293  0.68736039    -0.57100
O25         O  0.16729436  0.19081697  0.68607960    -0.57100
O26         O  0.10855575  0.18888097  0.65825580    -0.56300
O27         O  0.39318249  0.26306777  0.68577632    -0.57500
C28         C  0.29658539  0.27899293  0.68633576     0.75200
O29         O  0.36732585  0.35502581  0.70626738    -0.58600
C30         C  0.41911355  0.27839959  0.68714944     0.75100
C31         C  0.35792872  0.34284826  0.65656860     0.77500
Cd32       Cd  0.35787073  0.31066104  0.68714672     1.37500
O33         O  0.32271245  0.26355852  0.68658017    -0.57500
O34         O  0.36453581  0.31358572  0.65821969    -0.56300
C35         C  0.36177723  0.33850113  0.71864717     0.77500
O36         O  0.35130141  0.35778015  0.66935002    -0.58700
O37         O  0.29910744  0.30912621  0.68648575    -0.57100
O38         O  0.41631011  0.30838481  0.68840903    -0.57100
O39         O  0.35288306  0.31008962  0.71628994    -0.56300
O40         O  0.47502757  0.33199289  0.81493945    -0.57500
C41         C  0.46211264  0.42925440  0.81613548     0.75200
O42         O  0.38422373  0.36461998  0.79494794    -0.58600
C43         C  0.45911629  0.30636375  0.81421965     0.75100
C44         C  0.39553830  0.37147331  0.84480069     0.77500
Cd45       Cd  0.42876432  0.36892975  0.81448743     1.37500
O46         O  0.47721934  0.40296088  0.81640735    -0.57500
O47         O  0.42464779  0.36375607  0.84338207    -0.56300
C48         C  0.40154901  0.36942291  0.78274457     0.77500
O49         O  0.38090818  0.37729674  0.83183040    -0.58700
O50         O  0.43196966  0.42712232  0.81516195    -0.57100
O51         O  0.42900649  0.30983130  0.81369558    -0.57100
O52         O  0.43074641  0.37493195  0.78546485    -0.56300
O53         O  0.07629965  0.23633391  0.06533221    -0.57500
C54         C  0.17584698  0.21945633  0.06419742     0.75200
O55         O  0.11036801  0.14184467  0.08100018    -0.58600
C56         C  0.05090794  0.22003234  0.06389221     0.75100
C57         C  0.11430523  0.16313900  0.03211746     0.77500
Cd58       Cd  0.11317152  0.18987793  0.06383768     1.37500
O59         O  0.15036500  0.23600543  0.06493698    -0.57500
O60         O  0.10886140  0.19235152  0.03481877    -0.56300
C61         C  0.11109970  0.15682517  0.09415131     0.77500
O62         O  0.11848179  0.14558031  0.04430424    -0.58700
O63         O  0.17189712  0.18963093  0.06328754    -0.57100
O64         O  0.05483005  0.19021314  0.06251092    -0.57100
O65         O  0.11269920  0.18691554  0.09311512    -0.56300
O66         O  0.22534100  0.16366883  0.93745823    -0.57500
C67         C  0.20912490  0.06458733  0.93744325     0.75200
O68         O  0.13278043  0.13273187  0.95560714    -0.58600
C69         C  0.20877003  0.18909524  0.93672425     0.75100
C70         C  0.14502573  0.12488403  0.90687933     0.77500
Cd71       Cd  0.17863707  0.12676113  0.93701126     1.37500
O72         O  0.22535788  0.08989898  0.93571279    -0.57500
O73         O  0.17520628  0.12692806  0.90774824    -0.56300
C74         C  0.14947348  0.12886946  0.96811202     0.77500
O75         O  0.13043553  0.12344119  0.92011079    -0.58700
O76         O  0.17922966  0.06851165  0.93871602    -0.57100
O77         O  0.17885255  0.18520752  0.93605307    -0.57100
O78         O  0.17896856  0.12352863  0.96604183    -0.56300
O79         O  0.25330463  0.33974506  0.93548889    -0.57500
C80         C  0.27072245  0.43929388  0.93743172     0.75200
O81         O  0.34511041  0.36741865  0.95606007    -0.58600
C82         C  0.26952879  0.31441766  0.93771006     0.75100
C83         C  0.33049545  0.37759808  0.90634787     0.77500
Cd84       Cd  0.29995434  0.37673500  0.93736506     1.37500
O85         O  0.25408110  0.41415945  0.93897491    -0.57500
O86         O  0.30049428  0.37574126  0.90798493    -0.56300
C87         C  0.32974979  0.37494079  0.96857611     0.77500
O88         O  0.34651896  0.37907465  0.91921169    -0.58700
O89         O  0.30054189  0.43499273  0.93588077    -0.57100
O90         O  0.29915946  0.31843253  0.93977790    -0.57100
O91         O  0.30157537  0.38530099  0.96641312    -0.56300
O92         O  0.32664276  0.26475763  0.06477396    -0.57500
C93         C  0.42561459  0.28170506  0.06498619     0.75200
O94         O  0.35629671  0.35770420  0.04630120    -0.58600
C95         C  0.30099880  0.28107851  0.06527032     0.75100
C96         C  0.36506964  0.34359838  0.09561275     0.77500
Cd97       Cd  0.36319834  0.31177086  0.06492629     1.37500
O98         O  0.40018091  0.26524585  0.06507726    -0.57500
O99         O  0.36369490  0.31355734  0.09430690    -0.56300
C100        C  0.36021509  0.34142427  0.03368597     0.77500
O101        O  0.36563311  0.35907841  0.08258882    -0.58700
O102        O  0.42176425  0.31166370  0.06477779    -0.57100
O103        O  0.30467651  0.31095987  0.06581663    -0.57100
O104        O  0.36673279  0.31216782  0.03568504    -0.56300
O105        O  0.24592539  0.41303829  0.31264370    -0.57500
C106        C  0.26592295  0.31507441  0.31430378     0.75200
O107        O  0.33926475  0.39098764  0.29634469    -0.58600
C108        C  0.26055354  0.43864276  0.31593241     0.75100
C109        C  0.32825938  0.37493636  0.34433414     0.77500
Cd110      Cd  0.29432047  0.37803615  0.31439760     1.37500
O111        O  0.24932765  0.34022979  0.31624190    -0.57500
O112        O  0.29799596  0.37507911  0.34354653    -0.56300
C113        C  0.32391150  0.38575083  0.28357957     0.77500
O114        O  0.34289781  0.37587127  0.33109421    -0.58700
O115        O  0.29560561  0.31931090  0.31224309    -0.57100
O116        O  0.29009149  0.43557124  0.31881424    -0.57100
O117        O  0.29567859  0.37545253  0.28512369    -0.56300
O118        O  0.39558311  0.49095678  0.18523452    -0.57500
C119        C  0.29840290  0.47462823  0.18663504     0.75200
O120        O  0.36230090  0.39527187  0.16980133    -0.58600
C121        C  0.42150526  0.47588187  0.18756326     0.75100
C122        C  0.35787898  0.41842022  0.21894994     0.77500
Cd123      Cd  0.36054448  0.44392079  0.18704483     1.37500
O124        O  0.32408742  0.49033790  0.18530567    -0.57500
O125        O  0.35961459  0.44800620  0.21604986    -0.56300
C126        C  0.36235915  0.41046849  0.15668608     0.77500
O127        O  0.35878758  0.40006354  0.20690080    -0.58700
O128        O  0.30169751  0.44467414  0.18788044    -0.57100
O129        O  0.41888722  0.44607214  0.18968631    -0.57100
O130        O  0.36187256  0.44052810  0.15786844    -0.56300
O131        O  0.22014227  0.16496824  0.31598239    -0.57500
C132        C  0.20434874  0.06628816  0.31625666     0.75200
O133        O  0.12637152  0.13011673  0.33317065    -0.58600
C134        C  0.20378776  0.19043996  0.31479624     0.75100
C135        C  0.14708078  0.11996187  0.28401088     0.77500
Cd136      Cd  0.17368824  0.12808928  0.31532379     1.37500
O137        O  0.22043359  0.09189981  0.31659717    -0.57500
O138        O  0.17681585  0.12047875  0.28674273    -0.56300
C139        C  0.14218823  0.12635749  0.34599286     0.77500
O140        O  0.12862844  0.12578821  0.29569434    -0.58700
O141        O  0.17425568  0.06965897  0.31559683    -0.57100
O142        O  0.17385119  0.18666073  0.31379468    -0.57100
O143        O  0.17214344  0.12368500  0.34439579    -0.56300
O144        O  0.07348503  0.01704767  0.18578940    -0.57500
C145        C  0.17083542  0.03154706  0.18633071     0.75200
O146        O  0.10689364  0.11174566  0.17015792    -0.58600
C147        C  0.04788245  0.03299758  0.18745807     0.75100
C148        C  0.11321760  0.08622103  0.21942788     0.77500
Cd149      Cd  0.10934349  0.06321193  0.18713615     1.37500
O150        O  0.14490929  0.01602257  0.18573443    -0.57500
O151        O  0.11098985  0.05705093  0.21575283    -0.56300
C152        C  0.10849240  0.09686882  0.15698019     0.77500
O153        O  0.11231375  0.10596997  0.20793212    -0.58700
O154        O  0.16792410  0.06163729  0.18695088    -0.57100
O155        O  0.05092045  0.06296384  0.18865332    -0.57100
O156        O  0.11038328  0.06676994  0.15799461    -0.56300
O157        O  0.47046125  0.40805807  0.43609436    -0.57500
C158        C  0.45317636  0.30890312  0.43680176     0.75200
O159        O  0.37817368  0.37875263  0.45582015    -0.58600
C160        C  0.45400048  0.43356286  0.43682346     0.75100
C161        C  0.39005449  0.37096089  0.40663128     0.77500
Cd162      Cd  0.42335291  0.37149013  0.43692407     1.37500
O163        O  0.46963220  0.33426905  0.43611058    -0.57500
O164        O  0.42028303  0.37113074  0.40760731    -0.56300
C165        C  0.39497566  0.37524219  0.46831050     0.77500
O166        O  0.37513639  0.37084797  0.41980135    -0.58700
O167        O  0.42318120  0.31285113  0.43760605    -0.57100
O168        O  0.42407625  0.42979352  0.43731672    -0.57100
O169        O  0.42413004  0.36816673  0.46615109    -0.56300
O170        O  0.32519056  0.48659083  0.56209517    -0.57500
C171        C  0.42296211  0.47079737  0.56454128     0.75200
O172        O  0.35656540  0.39279284  0.58219379    -0.58600
C173        C  0.29940520  0.47140167  0.56428511     0.75100
C174        C  0.36379893  0.40935946  0.53323232     0.77500
Cd175      Cd  0.36114228  0.43967663  0.56432369     1.37500
O176        O  0.39720314  0.48688819  0.56512250    -0.57500
O177        O  0.35549788  0.43815810  0.53520074    -0.56300
C178        C  0.35958374  0.40835763  0.59511130     0.77500
O179        O  0.36931410  0.39363075  0.54587281    -0.58700
O180        O  0.41972864  0.44083969  0.56419252    -0.57100
O181        O  0.30253360  0.44166550  0.56659710    -0.57100
O182        O  0.36351538  0.43811855  0.59359346    -0.56300
O183        O  0.07306855  0.01568627  0.56403868    -0.57500
C184        C  0.17197332  0.02916195  0.56513289     0.75200
O185        O  0.10421177  0.10609890  0.54595988    -0.58600
C186        C  0.04773631  0.03230508  0.56538128     0.75100
C187        C  0.11136507  0.09386369  0.59557058     0.77500
Cd188      Cd  0.11050901  0.06138353  0.56519229     1.37500
O189        O  0.14610308  0.01405820  0.56726458    -0.57500
O190        O  0.10636612  0.06426106  0.59416028    -0.56300
C191        C  0.10772763  0.08853895  0.53372888     0.77500
O192        O  0.11705944  0.10883063  0.58270392    -0.58700
O193        O  0.16905459  0.05904114  0.56329237    -0.57100
O194        O  0.05177306  0.06207322  0.56669455    -0.57100
O195        O  0.11314538  0.05930043  0.53628562    -0.56300
O196        O  0.99835610  0.08413052  0.43724328    -0.57500
C197        C  0.01553203  0.18385769  0.43761663     0.75200
O198        O  0.08959741  0.11633228  0.45721821    -0.58600
C199        C  0.01500592  0.05870031  0.43742253     0.75100
C200        C  0.07699372  0.12180972  0.40742336     0.77500
Cd201      Cd  0.04488634  0.12114519  0.43791439     1.37500
O202        O  0.99897640  0.15858567  0.43657831    -0.57500
O203        O  0.04689485  0.12139774  0.40882698    -0.56300
C204        C  0.07206967  0.12021226  0.46944764     0.77500
O205        O  0.09268990  0.12217811  0.42040900    -0.58700
O206        O  0.04544677  0.17971442  0.43876408    -0.57100
O207        O  0.04494303  0.06259000  0.43796065    -0.57100
O208        O  0.04263661  0.12503978  0.46687544    -0.56300
C209        C  0.08034057  0.12455803  0.51466855    -0.20000
C210        C  0.10354112  0.10083608  0.51728926    -0.06500
C211        C  0.11974724  0.08731991  0.50403259     0.14300
C212        C  0.11039263  0.09600181  0.48852325    -0.20000
C213        C  0.08481267  0.11718295  0.48590170    -0.06500
C214        C  0.07046815  0.13270413  0.49916081     0.14300
C215        C  0.04467381  0.15770909  0.49715627    -0.23400
H216        H  0.06838570  0.13540746  0.52484826     0.15600
H217        H  0.12193233  0.08464493  0.47836555     0.15600
C218        C  0.14679166  0.06366565  0.50606813    -0.23300
H219        H  0.03823938  0.16902732  0.50873440     0.05900
H220        H  0.02258298  0.14679422  0.49229375     0.09100
H221        H  0.05314914  0.17680407  0.48900390     0.09100
H222        H  0.13776702  0.04101024  0.51119217     0.09100
H223        H  0.16541420  0.07386972  0.51401832     0.09100
H224        H  0.15829006  0.05774167  0.49446415     0.05800
C225        C  0.45772766  0.01759319  0.57018206    -0.20000
C226        C  0.45504323  0.48620953  0.56443923    -0.06500
C227        C  0.48291897  0.47052232  0.55867354     0.14300
C228        C  0.01249795  0.48628317  0.55924662    -0.20000
C229        C  0.01531378  0.01751825  0.56517470    -0.06500
C230        C  0.48729920  0.03349878  0.57061488     0.14300
C231        C  0.48810615  0.06704863  0.57716078    -0.23400
H232        H  0.43646141  0.02977403  0.57453684     0.15600
H233        H  0.03368944  0.47406821  0.55483295     0.15600
C234        C  0.48187453  0.43751706  0.55145922    -0.23300
H235        H  0.46416594  0.07509546  0.58136219     0.05900
H236        H  0.49582640  0.08391245  0.56769995     0.09100
H237        H  0.50475268  0.06823251  0.58748914     0.09100
H238        H  0.46455168  0.43708257  0.54138961     0.09100
H239        H  0.47491031  0.41979096  0.56066068     0.09100
H240        H  0.00556615  0.42998693  0.54670796     0.05800
C241        C  0.24024207  0.46772749  0.56723092    -0.20000
C242        C  0.26712497  0.48694918  0.56420457    -0.06500
C243        C  0.26222289  0.01993760  0.56116360     0.14300
C244        C  0.23098750  0.03254975  0.56150534    -0.20000
C245        C  0.20414512  0.01341036  0.56474534    -0.06500
C246        C  0.20898842  0.48031968  0.56749342     0.14300
C247        C  0.18166604  0.45782653  0.57075100    -0.23400
H248        H  0.24361399  0.44248129  0.56945706     0.15600
H249        H  0.22760615  0.05778039  0.55922048     0.15600
C250        C  0.28945532  0.04230830  0.55751166    -0.23300
H251        H  0.19008502  0.43290146  0.57260435     0.05900
H252        H  0.16497547  0.45766012  0.56042251     0.09100
H253        H  0.16880467  0.46529393  0.58174846     0.09100
H254        H  0.30219483  0.03425133  0.54657929     0.09100
H255        H  0.30627323  0.04310901  0.56777612     0.09100
H256        H  0.28095419  0.06710012  0.55532882     0.05800
C257        C  0.00196180  0.46829945  0.43409538    -0.20000
C258        C  0.46895891  0.46591794  0.43703235    -0.06500
C259        C  0.45132234  0.49438107  0.44011182     0.14300
C260        C  0.46714730  0.02393390  0.44009403    -0.20000
C261        C  0.00013236  0.02631731  0.43716113    -0.06500
C262        C  0.01776662  0.99788458  0.43405804     0.14300
C263        C  0.05311786  0.99817435  0.43038974    -0.23400
H264        H  0.01563658  0.44673885  0.43168732     0.15600
H265        H  0.45348944  0.04550276  0.44252055     0.15600
C266        C  0.41590247  0.99423646  0.44364826    -0.23300
H267        H  0.06246679  0.47389222  0.42767282     0.05900
H268        H  0.06665666  0.00721434  0.44085440     0.09100
H269        H  0.05772956  0.01342018  0.41978788     0.09100
H270        H  0.41105970  0.47933104  0.45433680     0.09100
H271        H  0.40252398  0.48493235  0.43317752     0.09100
H272        H  0.40652613  0.01859136  0.44616192     0.05800
C273        C  0.46719803  0.21840229  0.43499836    -0.20000
C274        C  0.00042942  0.21629468  0.43741165    -0.06500
C275        C  0.01794535  0.24501134  0.43950497     0.14300
C276        C  0.00173555  0.27451100  0.43913463    -0.20000
C277        C  0.46846506  0.27656848  0.43684186    -0.06500
C278        C  0.45099487  0.24787999  0.43467830     0.14300
C279        C  0.41534849  0.24772339  0.43179768    -0.23400
H280        H  0.45357367  0.19667083  0.43331288     0.15600
H281        H  0.01531154  0.29628078  0.44080524     0.15600
C282        C  0.05363668  0.24521676  0.44226309    -0.23300
H283        H  0.40611008  0.22319845  0.42982141     0.05900
H284        H  0.40955444  0.26199712  0.42098715     0.09100
H285        H  0.40264839  0.25762850  0.44234921     0.09100
H286        H  0.06615234  0.23456158  0.43183584     0.09100
H287        H  0.05952571  0.23165676  0.45328802     0.09100
H288        H  0.06299112  0.26981914  0.44381535     0.05800
C289        C  0.39642350  0.36340394  0.49735263    -0.20000
C290        C  0.38217087  0.38025580  0.48467619    -0.06500
C291        C  0.35887597  0.40389734  0.48814921     0.14300
C292        C  0.35215359  0.41143832  0.50416160    -0.20000
C293        C  0.36785485  0.39595014  0.51687452    -0.06500
C294        C  0.38943882  0.37069439  0.51338013     0.14300
C295        C  0.40645723  0.35225269  0.52633744    -0.23400
H296        H  0.41396496  0.34503036  0.49469413     0.15600
H297        H  0.33525694  0.43043947  0.50675707     0.15600
C298        C  0.34228830  0.42262786  0.47514626    -0.23300
H299        H  0.42269955  0.33369756  0.52134568     0.05900
H300        H  0.38866553  0.33996473  0.53400324     0.09100
H301        H  0.42116713  0.36868117  0.53368760     0.09100
H302        H  0.32815705  0.40624352  0.46749829     0.09100
H303        H  0.36025092  0.43536927  0.46776494     0.09100
H304        H  0.32551495  0.44075083  0.48009718     0.05800
C305        C  0.09327599  0.11899253  0.36240919    -0.20000
C306        C  0.12632555  0.12481175  0.36191184    -0.06500
C307        C  0.14309764  0.12889550  0.37652147     0.14300
C308        C  0.12624485  0.12764927  0.39103010    -0.20000
C309        C  0.09310191  0.12219719  0.39152799    -0.06500
C310        C  0.07647487  0.11737840  0.37691926     0.14300
C311        C  0.04116135  0.11006439  0.37629771    -0.23400
H312        H  0.08042035  0.11540176  0.35132146     0.15600
H313        H  0.13916674  0.13118517  0.40210109     0.15600
C314        C  0.17861615  0.13515005  0.37711062    -0.23300
H315        H  0.03273993  0.10582726  0.36388974     0.05900
H316        H  0.02717660  0.13051204  0.38110197     0.09100
H317        H  0.03609711  0.08813031  0.38329891     0.09100
H318        H  0.18431415  0.15698330  0.37016107     0.09100
H319        H  0.19192751  0.11435082  0.37220331     0.09100
H320        H  0.18723809  0.13892212  0.38952257     0.05800
C321        C  0.13497421  0.07343750  0.24598726    -0.20000
C322        C  0.11873345  0.09558032  0.23629092    -0.06500
C323        C  0.10911112  0.12525309  0.24291610     0.14300
C324        C  0.11735624  0.13244520  0.25886450    -0.20000
C325        C  0.13521283  0.11079091  0.26810327    -0.06500
C326        C  0.14343695  0.08068430  0.26171907     0.14300
C327        C  0.16094809  0.05588989  0.27154084    -0.23400
H328        H  0.14202049  0.05052173  0.24108882     0.15600
H329        H  0.11077627  0.15531179  0.26395543     0.15600
C330        C  0.08981998  0.14906733  0.23341940    -0.23300
H331        H  0.16423503  0.03317668  0.26487233     0.05900
H332        H  0.14709749  0.05057350  0.28254109     0.09100
H333        H  0.18504485  0.06467855  0.27489395     0.09100
H334        H  0.06749611  0.13770000  0.22904913     0.09100
H335        H  0.10400232  0.15779653  0.22311556     0.09100
H336        H  0.08298957  0.17012934  0.24075242     0.05800
C337        C  0.23913407  0.47013901  0.18499864    -0.20000
C338        C  0.26608345  0.48990579  0.18665704    -0.06500
C339        C  0.26128510  0.02323544  0.18848414     0.14300
C340        C  0.23001419  0.03567756  0.18830591    -0.20000
C341        C  0.20305651  0.01599939  0.18643773    -0.06500
C342        C  0.20781868  0.48258412  0.18487191     0.14300
C343        C  0.18037001  0.45961101  0.18298867    -0.23400
H344        H  0.24253190  0.44465860  0.18368956     0.15600
H345        H  0.22669558  0.06115872  0.18969370     0.15600
C346        C  0.28867173  0.04608523  0.19090789    -0.23300
H347        H  0.18877579  0.43452304  0.18180001     0.05900
H348        H  0.16650072  0.46554199  0.17205580     0.09100
H349        H  0.16460317  0.46077880  0.19365224     0.09100
H350        H  0.30441486  0.04603521  0.18022873     0.09100
H351        H  0.30258658  0.03912362  0.20167851     0.09100
H352        H  0.28019874  0.07100615  0.19270543     0.05800
C353        C  0.47992855  0.47355920  0.19293627    -0.20000
C354        C  0.45338716  0.49166148  0.18781344    -0.06500
C355        C  0.45829073  0.02368456  0.18286432     0.14300
C356        C  0.48936966  0.03626385  0.18302259    -0.20000
C357        C  0.01587347  0.01788410  0.18780002    -0.06500
C358        C  0.01100465  0.48611301  0.19298534     0.14300
C359        C  0.03813425  0.46541743  0.19896054    -0.23400
H360        H  0.47642109  0.44916810  0.19693718     0.15600
H361        H  0.49307102  0.06069397  0.17910281     0.15600
C362        C  0.43131147  0.04480729  0.17711740    -0.23300
H363        H  0.02953268  0.44194853  0.20336738     0.05900
H364        H  0.05053033  0.47748951  0.20901278     0.09100
H365        H  0.05533596  0.46062663  0.18914083     0.09100
H366        H  0.41361404  0.04840130  0.18684818     0.09100
H367        H  0.41956994  0.03380958  0.16657555     0.09100
H368        H  0.43991093  0.06878313  0.17344825     0.05800
C369        C  0.32722671  0.36451982  0.37352410    -0.20000
C370        C  0.34504958  0.37356258  0.36001781    -0.06500
C371        C  0.37777611  0.38141713  0.36198203     0.14300
C372        C  0.39147761  0.38022041  0.37731157    -0.20000
C373        C  0.37358353  0.37139301  0.39083840    -0.06500
C374        C  0.34096687  0.36317621  0.38883346     0.14300
C375        C  0.32040301  0.35226952  0.40257809    -0.23400
H376        H  0.30234282  0.35823582  0.37211511     0.15600
H377        H  0.41635477  0.38653863  0.37873118     0.15600
C378        C  0.39852158  0.39168432  0.34817540    -0.23300
H379        H  0.29602473  0.34540568  0.39859512     0.05900
H380        H  0.31762302  0.37184875  0.41141347     0.09100
H381        H  0.33146773  0.33105011  0.40836256     0.09100
H382        H  0.38802961  0.41316936  0.34237644     0.09100
H383        H  0.40065104  0.37197195  0.33936516     0.09100
H384        H  0.42312912  0.39785647  0.35209288     0.05800
C385        C  0.26390808  0.49714843  0.32053562    -0.20000
C386        C  0.24491397  0.47078134  0.31628673    -0.06500
C387        C  0.21238183  0.47619074  0.31223582     0.14300
C388        C  0.20015667  0.00754150  0.31238242    -0.20000
C389        C  0.21931723  0.03390058  0.31644546    -0.06500
C390        C  0.25170799  0.02844595  0.32067513     0.14300
C391        C  0.27371925  0.05515107  0.32560276    -0.23400
H392        H  0.28873769  0.49336774  0.32373852     0.15600
H393        H  0.17536227  0.01146316  0.30913677     0.15600
C394        C  0.19019726  0.44939432  0.30766608    -0.23300
H395        H  0.29780004  0.04617719  0.32906756     0.05900
H396        H  0.26354645  0.06794289  0.33607159     0.09100
H397        H  0.27705346  0.07198977  0.31550414     0.09100
H398        H  0.18826398  0.43213688  0.31768787     0.09100
H399        H  0.19931421  0.43712930  0.29681181     0.09100
H400        H  0.16566813  0.45819459  0.30495034     0.05800
C401        C  0.21743501  0.28094708  0.31370965    -0.20000
C402        C  0.25097457  0.28272294  0.31436865    -0.06500
C403        C  0.26884926  0.25384382  0.31518146     0.14300
C404        C  0.25266180  0.22444338  0.31535027    -0.20000
C405        C  0.21907153  0.22267940  0.31460697    -0.06500
C406        C  0.20126070  0.25160850  0.31373236     0.14300
C407        C  0.16520040  0.25226603  0.31278596    -0.23400
H408        H  0.20355555  0.30284527  0.31304233     0.15600
H409        H  0.26654193  0.20254956  0.31602981     0.15600
C410        C  0.30491455  0.25343160  0.31605145    -0.23300
H411        H  0.15559709  0.27702121  0.31219241     0.05900
H412        H  0.15483206  0.24085755  0.32356822     0.09100
H413        H  0.15710757  0.23967467  0.30184089     0.09100
H414        H  0.31305090  0.26692240  0.32671709     0.09100
H415        H  0.31511351  0.26411054  0.30504420     0.09100
H416        H  0.31461175  0.22876286  0.31704735     0.05800
C417        C  0.36139493  0.42785928  0.24815979    -0.20000
C418        C  0.35376511  0.40682044  0.23561772    -0.06500
C419        C  0.33946675  0.37709713  0.23933663     0.14300
C420        C  0.33123862  0.37035074  0.25525811    -0.20000
C421        C  0.33745952  0.39211962  0.26759590    -0.06500
C422        C  0.35347088  0.42090815  0.26407433     0.14300
C423        C  0.36048988  0.44531176  0.27684685    -0.23400
H424        H  0.37265668  0.45044506  0.24545060     0.15600
H425        H  0.31912753  0.34824105  0.25806702     0.15600
C426        C  0.33147231  0.35285251  0.22665542    -0.23300
H427        H  0.37197639  0.46699080  0.27184565     0.05900
H428        H  0.37705896  0.43497775  0.28585602     0.09100
H429        H  0.33788182  0.45281277  0.28276870     0.09100
H430        H  0.35368993  0.34509788  0.22046603     0.09100
H431        H  0.31442670  0.36332339  0.21790358     0.09100
H432        H  0.32014475  0.33122416  0.23179903     0.05800
C433        C  0.35632972  0.39238054  0.11192203    -0.20000
C434        C  0.36522814  0.36003914  0.11141749    -0.06500
C435        C  0.37367642  0.34452316  0.12590715     0.14300
C436        C  0.37236218  0.36162830  0.14036721    -0.20000
C437        C  0.36320695  0.39394999  0.14087944    -0.06500
C438        C  0.35513008  0.40952163  0.12633584     0.14300
C439        C  0.34450953  0.44398758  0.12574193    -0.23400
H440        H  0.34979592  0.40439675  0.10089379     0.15600
H441        H  0.37885342  0.34961676  0.15139545     0.15600
C442        C  0.38488094  0.31024239  0.12632702    -0.23300
H443        H  0.33785819  0.45153858  0.11344951     0.05900
H444        H  0.36425290  0.45973074  0.12974057     0.09100
H445        H  0.32316276  0.44751077  0.13345558     0.09100
H446        H  0.40595139  0.30715455  0.11837640     0.09100
H447        H  0.36528492  0.29418732  0.12247293     0.09100
H448        H  0.39214223  0.30275961  0.13854359     0.05800
C449        C  0.32830045  0.38736812  0.99765297    -0.20000
C450        C  0.34275212  0.37045457  0.98501792    -0.06500
C451        C  0.36630159  0.34709616  0.98867166     0.14300
C452        C  0.37272181  0.33963677  0.00473004    -0.20000
C453        C  0.35653602  0.35489199  0.01732881    -0.06500
C454        C  0.33492249  0.38002819  0.01372821     0.14300
C455        C  0.31734777  0.39806979  0.02663901    -0.23400
H456        H  0.31068766  0.40565077  0.99494285     0.15600
H457        H  0.38974236  0.32081313  0.00746287     0.15600
C458        C  0.38365085  0.32858025  0.97584923    -0.23300
H459        H  0.30090515  0.41640354  0.02160295     0.05900
H460        H  0.33477188  0.41054944  0.03444308     0.09100
H461        H  0.30279503  0.38131094  0.03387634     0.09100
H462        H  0.39733108  0.34522491  0.96814016     0.09100
H463        H  0.36623308  0.31497541  0.96852566     0.09100
H464        H  0.40096952  0.31116029  0.98096575     0.05800
C465        C  0.25609650  0.22400190  0.94104833    -0.20000
C466        C  0.22365034  0.22148220  0.93685936    -0.06500
C467        C  0.20642501  0.24984752  0.93311198     0.14300
C468        C  0.22218802  0.27943592  0.93350062    -0.20000
C469        C  0.25463255  0.28199155  0.93770033    -0.06500
C470        C  0.27174914  0.25364359  0.94167466     0.14300
C471        C  0.30636300  0.25401492  0.94683542    -0.23400
H472        H  0.26937870  0.20251944  0.94407453     0.15600
H473        H  0.20887258  0.30088390  0.93046969     0.15600
C474        C  0.17148893  0.24954271  0.92854158    -0.23300
H475        H  0.31531364  0.22974833  0.94989443     0.05900
H476        H  0.30911275  0.26914571  0.95764464     0.09100
H477        H  0.32159632  0.26320082  0.93701125     0.09100
H478        H  0.15692998  0.24057096  0.93867213     0.09100
H479        H  0.16791660  0.23424840  0.91785669     0.09100
H480        H  0.16241819  0.27380361  0.92556813     0.05800
C481        C  0.22332948  0.47446723  0.94153315    -0.20000
C482        C  0.25588684  0.47181124  0.93755396    -0.06500
C483        C  0.27308081  0.00009460  0.93390135     0.14300
C484        C  0.25705563  0.02968798  0.93402219    -0.20000
C485        C  0.22438927  0.03227563  0.93781203    -0.06500
C486        C  0.20742480  0.50408594  0.94186763     0.14300
C487        C  0.17271206  0.50462107  0.94684183    -0.23400
H488        H  0.21007345  0.45308316  0.94454455     0.15600
H489        H  0.27030525  0.05110388  0.93104028     0.15600
C490        C  0.30822418  0.99971403  0.92975182    -0.23300
H491        H  0.16396821  0.48048722  0.95013761     0.05900
H492        H  0.15756453  0.01330160  0.93683470     0.09100
H493        H  0.16960508  0.02024928  0.95745757     0.09100
H494        H  0.31235345  0.48473642  0.91900305     0.09100
H495        H  0.32232470  0.49033926  0.93999578     0.09100
H496        H  0.31734848  0.02400799  0.92706475     0.05800
C497        C  0.10265521  0.15920394  0.12354789    -0.20000
C498        C  0.10999045  0.14064336  0.11001062    -0.06500
C499        C  0.11668193  0.10771259  0.11210114     0.14300
C500        C  0.11571331  0.09451251  0.12751821    -0.20000
C501        C  0.10857858  0.11307704  0.14108859    -0.06500
C502        C  0.10190408  0.14604266  0.13899541     0.14300
C503        C  0.09376662  0.16769020  0.15282452    -0.23400
H504        H  0.09740312  0.18445183  0.12205432     0.15600
H505        H  0.12101379  0.06926373  0.12896271     0.15600
C506        C  0.12570625  0.08627749  0.09831998    -0.23300
H507        H  0.08855789  0.19248292  0.14883672     0.05900
H508        H  0.11427041  0.16882833  0.16124236     0.09100
H509        H  0.07217962  0.15871895  0.15908746     0.09100
H510        H  0.14727622  0.09575981  0.09222841     0.09100
H511        H  0.10551346  0.08469167  0.08974142     0.09100
H512        H  0.13136356  0.06159671  0.10233128     0.05800
C513        C  0.21016923  0.26784248  0.06505261    -0.20000
C514        C  0.20829713  0.23439070  0.06442797    -0.06500
C515        C  0.23726785  0.21645349  0.06413755     0.14300
C516        C  0.26677923  0.23247995  0.06447630    -0.20000
C517        C  0.26863074  0.26595194  0.06510989    -0.06500
C518        C  0.23964447  0.28386110  0.06541673     0.14300
C519        C  0.23907441  0.31986724  0.06613451    -0.23400
H520        H  0.18821873  0.28180098  0.06527166     0.15600
H521        H  0.28874524  0.21854441  0.06423163     0.15600
C522        C  0.23774146  0.18044495  0.06351458    -0.23300
H523        H  0.21427301  0.32955051  0.06632598     0.05900
H524        H  0.25111651  0.32991853  0.05544697     0.09100
H525        H  0.25113259  0.32816436  0.07719649     0.09100
H526        H  0.22580946  0.17205633  0.05243672     0.09100
H527        H  0.22548936  0.17056000  0.07418178     0.09100
H528        H  0.26252424  0.17070492  0.06344410     0.05800
C529        C  0.46055255  0.23444187  0.06023917    -0.20000
C530        C  0.45798293  0.26656640  0.06488065    -0.06500
C531        C  0.48623240  0.28320821  0.06918320     0.14300
C532        C  0.01588185  0.26726120  0.06870682    -0.20000
C533        C  0.01849353  0.23514963  0.06401143    -0.06500
C534        C  0.49023135  0.21857130  0.05960834     0.14300
C535        C  0.49080905  0.18439079  0.05390311    -0.23400
H536        H  0.43906785  0.22162363  0.05683083     0.15600
H537        H  0.03732326  0.28012516  0.07212925     0.15600
C538        C  0.48561118  0.31757821  0.07458275    -0.23300
H539        H  0.46662942  0.17595457  0.05039378     0.05900
H540        H  0.49946924  0.16845744  0.06359511     0.09100
H541        H  0.50654034  0.18217673  0.04326143     0.09100
H542        H  0.46956860  0.32023919  0.08507994     0.09100
H543        H  0.47726079  0.33317347  0.06468766     0.09100
H544        H  0.00973295  0.32606507  0.07815644     0.05800
C545        C  0.11254333  0.15629814  0.98673444    -0.20000
C546        C  0.13588491  0.13262765  0.98432838    -0.06500
C547        C  0.14787742  0.11551937  0.99764867     0.14300
C548        C  0.13834945  0.12455367  0.01308642    -0.20000
C549        C  0.11781443  0.15071151  0.01559280    -0.06500
C550        C  0.10360096  0.16589960  0.00217942     0.14300
C551        C  0.07933663  0.19245649  0.00392995    -0.23400
H552        H  0.10277966  0.16889750  0.97647174     0.15600
H553        H  0.14864470  0.11228313  0.02331471     0.15600
C554        C  0.17081798  0.08785941  0.99573348    -0.23300
H555        H  0.06895295  0.19950718  0.99221574     0.05900
H556        H  0.09076024  0.21399686  0.00906682     0.09100
H557        H  0.05939812  0.18453647  0.01173053     0.09100
H558        H  0.19412877  0.09629844  0.99106402     0.09100
H559        H  0.16052462  0.06994631  0.98742792     0.09100
H560        H  0.17560309  0.07576301  0.00731202     0.05800
C561        C  0.37946708  0.37173358  0.88985743    -0.20000
C562        C  0.34634174  0.37730283  0.89037724    -0.06500
C563        C  0.32964738  0.38206101  0.87577703     0.14300
C564        C  0.34642760  0.38012551  0.86122641    -0.20000
C565        C  0.37947705  0.37366189  0.86070868    -0.06500
C566        C  0.39625917  0.36988809  0.87536622     0.14300
C567        C  0.43190392  0.36406037  0.87611373    -0.23400
H568        H  0.39244803  0.36836390  0.90094189     0.15600
H569        H  0.33347368  0.38354558  0.85014052     0.15600
C570        C  0.29433042  0.38965963  0.87526038    -0.23300
H571        H  0.44075669  0.36249928  0.88860803     0.05900
H572        H  0.44476628  0.38405351  0.87027031     0.09100
H573        H  0.43795115  0.34110434  0.87018310     0.09100
H574        H  0.28931130  0.41152124  0.88236146     0.09100
H575        H  0.28041597  0.36928474  0.88005112     0.09100
H576        H  0.28582109  0.39409217  0.86287507     0.05800
C577        C  0.36179471  0.35893759  0.61152880    -0.20000
C578        C  0.35882980  0.39233677  0.61102998    -0.06500
C579        C  0.35505545  0.40921876  0.62562842     0.14300
C580        C  0.35471320  0.39227704  0.64012438    -0.20000
C581        C  0.35812118  0.35890169  0.64064239    -0.06500
C582        C  0.36154631  0.34199039  0.62601356     0.14300
C583        C  0.36468194  0.30609972  0.62532140    -0.23400
H584        H  0.36460346  0.34583420  0.60043113     0.15600
H585        H  0.35192339  0.40540567  0.65121321     0.15600
C586        C  0.35086925  0.44499807  0.62620983    -0.23300
H587        H  0.36623832  0.29719075  0.61283971     0.05900
H588        H  0.34342518  0.29484702  0.63090284     0.09100
H589        H  0.38684243  0.29833562  0.63155881     0.09100
H590        H  0.32969362  0.45217946  0.61901145     0.09100
H591        H  0.37267854  0.45686958  0.62158173     0.09100
H592        H  0.34698783  0.45376424  0.63859190     0.05800
C593        C  0.36071134  0.34888674  0.76384953    -0.20000
C594        C  0.38877868  0.36664937  0.76619647    -0.06500
C595        C  0.40505419  0.37887969  0.75263397     0.14300
C596        C  0.39400939  0.37114940  0.73725979    -0.20000
C597        C  0.36781345  0.35080646  0.73498925    -0.06500
C598        C  0.35029976  0.34036612  0.74847539     0.14300
C599        C  0.32073676  0.32010148  0.74683025    -0.23400
H600        H  0.34775281  0.33998514  0.77414361     0.15600
H601        H  0.40721193  0.37947575  0.72691632     0.15600
C602        C  0.43430544  0.39968210  0.75408961    -0.23300
H603        H  0.30882322  0.31623483  0.75853440     0.05900
H604        H  0.32709347  0.29625197  0.74198703     0.09100
H605        H  0.30329072  0.33206726  0.73877745     0.09100
H606        H  0.45454097  0.38580357  0.75920324     0.09100
H607        H  0.42888554  0.42063601  0.76177198     0.09100
H608        H  0.44228652  0.40878073  0.74227995     0.05800
C609        C  0.12584183  0.13985709  0.61294105    -0.20000
C610        C  0.11067694  0.11011420  0.61138743    -0.06500
C611        C  0.09501135  0.09687556  0.62489553     0.14300
C612        C  0.09547060  0.11342339  0.63947035    -0.20000
C613        C  0.11064167  0.14303384  0.64099402    -0.06500
C614        C  0.12607362  0.15647344  0.62753621     0.14300
C615        C  0.14377609  0.18771840  0.62854545    -0.23400
H616        H  0.13790976  0.15007612  0.60270289     0.15600
H617        H  0.08345651  0.10331260  0.64975997     0.15600
C618        C  0.07697057  0.06577846  0.62413400    -0.23300
H619        H  0.15598799  0.19359808  0.61713802     0.05900
H620        H  0.16229217  0.18635070  0.63805384     0.09100
H621        H  0.12679179  0.20745993  0.63119900     0.09100
H622        H  0.09373531  0.04578737  0.62159677     0.09100
H623        H  0.05825850  0.06712116  0.61472159     0.09100
H624        H  0.06483184  0.06024471  0.63560643     0.05800
C625        C  0.48723860  0.21712589  0.68981237    -0.20000
C626        C  0.01425101  0.23663769  0.68761641    -0.06500
C627        C  0.00950401  0.26981674  0.68514405     0.14300
C628        C  0.47824042  0.28231323  0.68503045    -0.20000
C629        C  0.45126310  0.26281434  0.68720850    -0.06500
C630        C  0.45594136  0.22962987  0.68961295     0.14300
C631        C  0.42837698  0.20708969  0.69222222    -0.23400
H632        H  0.49055902  0.19178633  0.69173852     0.15600
H633        H  0.47490377  0.30765160  0.68310031     0.15600
C634        C  0.03693261  0.29243359  0.68235506    -0.23300
H635        H  0.43668726  0.18223665  0.69439467     0.05900
H636        H  0.41281533  0.20667885  0.68146870     0.09100
H637        H  0.41429049  0.21473952  0.70281350     0.09100
H638        H  0.05074119  0.28482563  0.67166635     0.09100
H639        H  0.05275814  0.29292270  0.69300890     0.09100
H640        H  0.02851685  0.31726612  0.68021452     0.05800
C641        C  0.23718501  0.28286191  0.68601701    -0.20000
C642        C  0.26460259  0.26323063  0.68601101    -0.06500
C643        C  0.26051831  0.22961671  0.68586229     0.14300
C644        C  0.22943587  0.21689392  0.68594208    -0.20000
C645        C  0.20202391  0.23655058  0.68624648    -0.06500
C646        C  0.20612481  0.27015214  0.68618571     0.14300
C647        C  0.17820407  0.29312104  0.68633718    -0.23400
H648        H  0.23997682  0.30852782  0.68603027     0.15600
H649        H  0.22662289  0.19123260  0.68590499     0.15600
C650        C  0.28846854  0.20668020  0.68568958    -0.23300
H651        H  0.18610438  0.31840183  0.68606543     0.05900
H652        H  0.16397691  0.28982278  0.69741296     0.09100
H653        H  0.16293189  0.28915944  0.67566374     0.09100
H654        H  0.30321398  0.20997837  0.69660170     0.09100
H655        H  0.30323653  0.21069309  0.67485168     0.09100
H656        H  0.28057915  0.18139191  0.68548636     0.05800
C657        C  0.08098031  0.12049707  0.87416584    -0.20000
C658        C  0.09984388  0.12203401  0.86026908    -0.06500
C659        C  0.13339782  0.12551636  0.86187628     0.14300
C660        C  0.14704814  0.12641112  0.87720935    -0.20000
C661        C  0.12828963  0.12422638  0.89113023    -0.06500
C662        C  0.09459559  0.12161176  0.88951642     0.14300
C663        C  0.07249701  0.11998228  0.90374166    -0.23400
H664        H  0.05534369  0.11815803  0.87304381     0.15600
H665        H  0.17268421  0.12886745  0.87827300     0.15600
C666        C  0.15518247  0.12904382  0.84762387    -0.23300
H667        H  0.04699342  0.11823963  0.90011179     0.05900
H668        H  0.07497654  0.14191812  0.91108839     0.09100
H669        H  0.07819550  0.09854851  0.91103271     0.09100
H670        H  0.14746913  0.14984222  0.84031462     0.09100
H671        H  0.15470801  0.10696832  0.84029331     0.09100
H672        H  0.18042519  0.13309441  0.85122844     0.05800
C673        C  0.45446552  0.24691843  0.81420904    -0.20000
C674        C  0.47440136  0.27397156  0.81402524    -0.06500
C675        C  0.00803451  0.26920961  0.81368319     0.14300
C676        C  0.02047414  0.23799078  0.81342393    -0.20000
C677        C  0.00061691  0.21093516  0.81371659    -0.06500
C678        C  0.46698554  0.21561965  0.81416659     0.14300
C679        C  0.44390321  0.18806847  0.81470527    -0.23400
H680        H  0.42878659  0.25019666  0.81451572     0.15600
H681        H  0.04615412  0.23480828  0.81311596     0.15600
C682        C  0.03137943  0.29659188  0.81363542    -0.23300
H683        H  0.41860443  0.19631368  0.81502024     0.05900
H684        H  0.44818289  0.17362326  0.82563209     0.09100
H685        H  0.44690218  0.17294968  0.80390704     0.09100
H686        H  0.02843661  0.31100086  0.82468050     0.09100
H687        H  0.02740139  0.31175395  0.80292919     0.09100
H688        H  0.05662822  0.28820180  0.81328664     0.05800
C689        C  0.02442198  0.49633733  0.81723774    -0.20000
C690        C  0.00466891  0.02364051  0.81634463    -0.06500
C691        C  0.47100698  0.01940506  0.81600313     0.14300
C692        C  0.45836379  0.98841216  0.81617761    -0.20000
C693        C  0.47804846  0.46109992  0.81670083    -0.06500
C694        C  0.01168798  0.46525206  0.81747406     0.14300
C695        C  0.03455744  0.43736160  0.81851818    -0.23400
H696        H  0.05010903  0.49925110  0.81768619     0.15600
H697        H  0.43266414  0.98560580  0.81575354     0.15600
C698        C  0.44783151  0.04710801  0.81529563    -0.23300
H699        H  0.05986898  0.44523432  0.81922109     0.05900
H700        H  0.03220987  0.42210612  0.80773546     0.09100
H701        H  0.02945689  0.42316250  0.82942459     0.09100
H702        H  0.45197843  0.06124036  0.80427051     0.09100
H703        H  0.45076591  0.06243059  0.82601964     0.09100
H704        H  0.42253297  0.03908546  0.81505664     0.05800
C705        C  0.07839488  0.11065412  0.75397716    -0.20000
C706        C  0.09255260  0.12729101  0.76671169    -0.06500
C707        C  0.11542956  0.15120460  0.76327413     0.14300
C708        C  0.12154007  0.15934201  0.74728042    -0.20000
C709        C  0.10546235  0.14439315  0.73458197    -0.06500
C710        C  0.08447206  0.11881276  0.73798936     0.12700
C711        C  0.06683060  0.10116690  0.72500845    -0.23400
H712        H  0.06126146  0.09197084  0.75656951     0.15600
H713        H  0.13806876  0.17856725  0.74469901     0.15600
C714        C  0.13213799  0.16966439  0.77628074    -0.23300
H715        H  0.05098175  0.08236477  0.72994719     0.05900
H716        H  0.08422527  0.08930074  0.71690328     0.09100
H717        H  0.05159107  0.11806315  0.71812820     0.09100
H718        H  0.14646491  0.15310822  0.78381295     0.09100
H719        H  0.11423852  0.18241372  0.78376216     0.09100
H720        H  0.14874709  0.18779727  0.77133347     0.05800
O721        O  0.00424349  0.58159274  0.81574828    -0.57500
C722        C  0.01642903  0.67880934  0.81374477     0.75200
O723        O  0.09794816  0.61449738  0.83156241    -0.58600
C724        C  0.02010307  0.55576121  0.81564694     0.75100
C725        C  0.07967476  0.62196486  0.78305346     0.77500
Cd726      Cd  0.05019619  0.61799669  0.81422971     1.37500
O727        O  0.00130189  0.65267556  0.81433398    -0.57500
O728        O  0.05127815  0.61240263  0.78507474    -0.56300
C729        C  0.08338754  0.62044783  0.84449870     0.77500
O730        O  0.09542564  0.62778493  0.79564217    -0.58700
O731        O  0.04658193  0.67626471  0.81327523    -0.57100
O732        O  0.05021388  0.55880727  0.81485579    -0.57100
O733        O  0.05349418  0.62478282  0.84332300    -0.56300
O734        O  0.14399302  0.73642730  0.68777190    -0.57500
C735        C  0.04653553  0.72118901  0.68769228     0.75200
O736        O  0.11042812  0.64289877  0.66968991    -0.58600
C737        C  0.16999506  0.72090624  0.68668808     0.75100
C738        C  0.10828520  0.65865621  0.71837917     0.77500
Cd739      Cd  0.10856229  0.68964006  0.68755034     1.37500
O740        O  0.07241567  0.73677979  0.68808365    -0.57500
O741        O  0.11517996  0.68782694  0.71663654    -0.56300
C742        C  0.11002539  0.65886198  0.65682128     0.77500
O743        O  0.10295157  0.64319284  0.70565907    -0.58700
O744        O  0.04960586  0.69114269  0.68736099    -0.57100
O745        O  0.16729588  0.69081770  0.68607860    -0.57100
O746        O  0.10855239  0.68888060  0.65825570    -0.56300
O747        O  0.39318294  0.76306947  0.68577707    -0.57500
C748        C  0.29658758  0.77899354  0.68633392     0.75200
O749        O  0.36732883  0.85502767  0.70626657    -0.58600
C750        C  0.41911425  0.77840131  0.68714893     0.75100
C751        C  0.35792846  0.84285287  0.65656800     0.77500
Cd752      Cd  0.35787215  0.81066343  0.68714557     1.37500
O753        O  0.32271491  0.76355953  0.68657693    -0.57500
O754        O  0.36454068  0.81359138  0.65821879    -0.56300
C755        C  0.36178040  0.83850263  0.71864626     0.77500
O756        O  0.35129784  0.85778309  0.66934947    -0.58700
O757        O  0.29910920  0.80912683  0.68648547    -0.57100
O758        O  0.41631136  0.80838693  0.68840642    -0.57100
O759        O  0.35288559  0.81009141  0.71628882    -0.56300
O760        O  0.47502949  0.83199188  0.81494002    -0.57500
C761        C  0.46211442  0.92925365  0.81613569     0.75200
O762        O  0.38422639  0.86461966  0.79494736    -0.58600
C763        C  0.45911820  0.80636271  0.81422069     0.75100
C764        C  0.39553969  0.87147218  0.84480056     0.77500
Cd765      Cd  0.42876632  0.86892872  0.81448748     1.37500
O766        O  0.47722114  0.90296016  0.81640805    -0.57500
O767        O  0.42464993  0.86375771  0.84338220    -0.56300
C768        C  0.40155245  0.86942162  0.78274418     0.77500
O769        O  0.38090916  0.87729310  0.83183009    -0.58700
O770        O  0.43197152  0.92712144  0.81516155    -0.57100
O771        O  0.42900841  0.80983022  0.81369651    -0.57100
O772        O  0.43074992  0.87492968  0.78546482    -0.56300
O773        O  0.07630102  0.73633305  0.06533358    -0.57500
C774        C  0.17584707  0.71945439  0.06419822     0.75200
O775        O  0.11036620  0.64184420  0.08100137    -0.58600
C776        C  0.05090925  0.72003198  0.06389246     0.75100
C777        C  0.11430628  0.66313657  0.03211819     0.77500
Cd778      Cd  0.11317191  0.68987646  0.06383840     1.37500
O779        O  0.15036522  0.73600386  0.06493676    -0.57500
O780        O  0.10886041  0.69234872  0.03481947    -0.56300
C781        C  0.11109839  0.65682496  0.09415242     0.77500
O782        O  0.11848488  0.64557849  0.04430504    -0.58700
O783        O  0.17189706  0.68962892  0.06328927    -0.57100
O784        O  0.05483111  0.69021294  0.06251015    -0.57100
O785        O  0.11269874  0.68691523  0.09311602    -0.56300
O786        O  0.22534053  0.66366880  0.93745891    -0.57500
C787        C  0.20912357  0.56458685  0.93744561     0.75200
O788        O  0.13277883  0.63272444  0.95560778    -0.58600
C789        C  0.20876960  0.68909522  0.93672486     0.75100
C790        C  0.14502523  0.62488386  0.90688004     0.77500
Cd791      Cd  0.17863653  0.62676087  0.93701209     1.37500
O792        O  0.22535631  0.58989809  0.93571310    -0.57500
O793        O  0.17520645  0.62691894  0.90774892    -0.56300
C794        C  0.14947293  0.62886738  0.96811271     0.77500
O795        O  0.13043440  0.62344959  0.92011156    -0.58700
O796        O  0.17922862  0.56851160  0.93871976    -0.57100
O797        O  0.17885214  0.68520745  0.93605370    -0.57100
O798        O  0.17896926  0.62353316  0.96604272    -0.56300
O799        O  0.25330388  0.83974515  0.93548970    -0.57500
C800        C  0.27072321  0.93929419  0.93742940     0.75200
O801        O  0.34510798  0.86741726  0.95606007    -0.58600
C802        C  0.26952851  0.81441760  0.93770961     0.75100
C803        C  0.33049558  0.87759711  0.90634738     0.77500
Cd804      Cd  0.29995389  0.87673489  0.93736429     1.37500
O805        O  0.25408128  0.91415993  0.93897177    -0.57500
O806        O  0.30049438  0.87574014  0.90798430    -0.56300
C807        C  0.32974658  0.87493937  0.96857588     0.77500
O808        O  0.34651888  0.87907416  0.91921126    -0.58700
O809        O  0.30054300  0.93499287  0.93588012    -0.57100
O810        O  0.29915968  0.81843223  0.93977580    -0.57100
O811        O  0.30157281  0.88530095  0.96641241    -0.56300
O812        O  0.32664299  0.76475448  0.06477206    -0.57500
C813        C  0.42561458  0.78170099  0.06498614     0.75200
O814        O  0.35629178  0.85770012  0.04630119    -0.58600
C815        C  0.30099921  0.78107521  0.06527181     0.75100
C816        C  0.36507173  0.84359775  0.09561273     0.77500
Cd817      Cd  0.36319834  0.81176782  0.06492666     1.37500
O818        O  0.40018085  0.76524192  0.06507978    -0.57500
O819        O  0.36369365  0.81355677  0.09430734    -0.56300
C820        C  0.36021042  0.84142014  0.03368601     0.77500
O821        O  0.36563784  0.85907682  0.08258854    -0.58700
O822        O  0.42176420  0.81165956  0.06477541    -0.57100
O823        O  0.30467708  0.81095631  0.06582116    -0.57100
O824        O  0.36673018  0.81216419  0.03568522    -0.56300
O825        O  0.24592405  0.91303808  0.31264521    -0.57500
C826        C  0.26592336  0.81507572  0.31430275     0.75200
O827        O  0.33926386  0.89099486  0.29634493    -0.58600
C828        C  0.26055265  0.93864309  0.31593236     0.75100
C829        C  0.32825838  0.87493471  0.34433423     0.77500
Cd830      Cd  0.29432039  0.87803733  0.31439746     1.37500
O831        O  0.24932756  0.84023095  0.31624031    -0.57500
O832        O  0.29799498  0.87507865  0.34354660    -0.56300
C833        C  0.32391215  0.88575522  0.28357965     0.77500
O834        O  0.34289687  0.87586986  0.33109433    -0.58700
O835        O  0.29560617  0.81931250  0.31224265    -0.57100
O836        O  0.29009122  0.93557224  0.31881276    -0.57100
O837        O  0.29568089  0.87545225  0.28512354    -0.56300
O838        O  0.39558558  0.99096002  0.18523206    -0.57500
C839        C  0.29840455  0.97463089  0.18663370     0.75200
O840        O  0.36229733  0.89527416  0.16980091    -0.58600
C841        C  0.42150742  0.97588578  0.18756282     0.75100
C842        C  0.35788021  0.91842669  0.21894995     0.77500
Cd843      Cd  0.36054667  0.94392438  0.18704407     1.37500
O844        O  0.32408882  0.99034100  0.18530435    -0.57500
O845        O  0.35961217  0.94801267  0.21604925    -0.56300
C846        C  0.36236253  0.91047030  0.15668553     0.77500
O847        O  0.35879322  0.90006904  0.20690124    -0.58700
O848        O  0.30169967  0.94467684  0.18787892    -0.57100
O849        O  0.41888902  0.94607664  0.18968790    -0.57100
O850        O  0.36188286  0.94053004  0.15786760    -0.56300
O851        O  0.22014455  0.66496909  0.31598439    -0.57500
C852        C  0.20435097  0.56628817  0.31625761     0.75200
O853        O  0.12637270  0.63011657  0.33316992    -0.58600
C854        C  0.20379008  0.69044040  0.31479578     0.75100
C855        C  0.14708406  0.61996007  0.28401100     0.77500
Cd856      Cd  0.17369091  0.62808959  0.31532381     1.37500
O857        O  0.22043646  0.59189948  0.31659745    -0.57500
O858        O  0.17681908  0.62047544  0.28674313    -0.56300
C859        C  0.14218906  0.62635882  0.34599234     0.77500
O860        O  0.12863165  0.62578926  0.29569408    -0.58700
O861        O  0.17425796  0.56965936  0.31559799    -0.57100
O862        O  0.17385393  0.68666060  0.31379178    -0.57100
O863        O  0.17214446  0.62368810  0.34439563    -0.56300
O864        O  0.07348347  0.51704661  0.18578958    -0.57500
C865        C  0.17083440  0.53154601  0.18633135     0.75200
O866        O  0.10689064  0.61174499  0.17015922    -0.58600
C867        C  0.04788087  0.53299657  0.18745810     0.75100
C868        C  0.11321630  0.58621837  0.21942882     0.77500
Cd869      Cd  0.10934219  0.56321066  0.18713700     1.37500
O870        O  0.14490819  0.51602155  0.18573548    -0.57500
O871        O  0.11098742  0.55704842  0.21575366    -0.56300
C872        C  0.10849160  0.59686863  0.15698142     0.77500
O873        O  0.11231327  0.60596773  0.20793323    -0.58700
O874        O  0.16792313  0.56163627  0.18695131    -0.57100
O875        O  0.05091894  0.56296281  0.18865344    -0.57100
O876        O  0.11038450  0.56676983  0.15799568    -0.56300
O877        O  0.47046396  0.90805839  0.43609269    -0.57500
C878        C  0.45317557  0.80890286  0.43680284     0.75200
O879        O  0.37817614  0.87876023  0.45581951    -0.58600
C880        C  0.45400362  0.93356332  0.43682312     0.75100
C881        C  0.39005444  0.87095838  0.40663103     0.77500
Cd882      Cd  0.42335415  0.87149090  0.43692353     1.37500
O883        O  0.46963207  0.83426826  0.43611027    -0.57500
O884        O  0.42028299  0.87112968  0.40760689    -0.56300
C885        C  0.39497706  0.87524520  0.46830989     0.77500
O886        O  0.37513666  0.87084557  0.41980118    -0.58700
O887        O  0.42318063  0.81285200  0.43760768    -0.57100
O888        O  0.42407944  0.92979420  0.43731725    -0.57100
O889        O  0.42413011  0.86816418  0.46615044    -0.56300
O890        O  0.32519042  0.98659398  0.56209254    -0.57500
C891        C  0.42296373  0.97079740  0.56454183     0.75200
O892        O  0.35656511  0.89279783  0.58219349    -0.58600
C893        C  0.29940537  0.97140517  0.56428400     0.75100
C894        C  0.36380048  0.90936344  0.53323168     0.77500
Cd895      Cd  0.36114254  0.93968020  0.56432298     1.37500
O896        O  0.39720545  0.98688957  0.56512179    -0.57500
O897        O  0.35550377  0.93816333  0.53519994    -0.56300
C898        C  0.35958292  0.90836311  0.59511092     0.77500
O899        O  0.36931074  0.89363324  0.54587225    -0.58700
O900        O  0.41972888  0.94083984  0.56419387    -0.57100
O901        O  0.30253419  0.94166952  0.56659754    -0.57100
O902        O  0.36351417  0.93812405  0.59359278    -0.56300
O903        O  0.07307135  0.51568378  0.56403693    -0.57500
C904        C  0.17197379  0.52915971  0.56513284     0.75200
O905        O  0.10421368  0.60609929  0.54595947    -0.58600
C906        C  0.04773847  0.53230169  0.56537922     0.75100
C907        C  0.11136541  0.59386331  0.59557029     0.77500
Cd908      Cd  0.11051030  0.56138272  0.56519159     1.37500
O909        O  0.14610353  0.51405692  0.56726608    -0.57500
O910        O  0.10636446  0.56426112  0.59415970    -0.56300
C911        C  0.10773131  0.58854030  0.53372824     0.77500
O912        O  0.11706201  0.60882981  0.58270376    -0.58700
O913        O  0.16905534  0.55903846  0.56329050    -0.57100
O914        O  0.05177438  0.56206993  0.56669249    -0.57100
O915        O  0.11314926  0.55930171  0.53628472    -0.56300
O916        O  0.99835860  0.58412881  0.43724443    -0.57500
C917        C  0.01553410  0.68385594  0.43761537     0.75200
O918        O  0.08960174  0.61633339  0.45721731    -0.58600
C919        C  0.01500817  0.55869844  0.43742401     0.75100
C920        C  0.07699444  0.62180539  0.40742269     0.77500
Cd921      Cd  0.04488871  0.62114332  0.43791417     1.37500
O922        O  0.99897815  0.65858381  0.43657906    -0.57500
O923        O  0.04689563  0.62139070  0.40882651    -0.56300
C924        C  0.07207479  0.62021358  0.46944700     0.77500
O925        O  0.09269089  0.62217653  0.42040821    -0.58700
O926        O  0.04544909  0.67971268  0.43876108    -0.57100
O927        O  0.04494537  0.56258790  0.43796170    -0.57100
O928        O  0.04264136  0.62503966  0.46687525    -0.56300
C929        C  0.08034699  0.62456151  0.51466778    -0.20000
C930        C  0.10354646  0.60083849  0.51728862    -0.06500
C931        C  0.11975272  0.58732219  0.50403201     0.14300
C932        C  0.11039871  0.59600438  0.48852257    -0.20000
C933        C  0.08481894  0.61718572  0.48590093    -0.06500
C934        C  0.07047497  0.63270768  0.49915995     0.14300
C935        C  0.04468133  0.65771328  0.49715522    -0.23400
H936        H  0.06839236  0.63541130  0.52484731     0.15600
H937        H  0.12193809  0.58464722  0.47836501     0.15600
C938        C  0.14679634  0.56366705  0.50606761    -0.23300
H939        H  0.03824738  0.66903217  0.50873325     0.05900
H940        H  0.02259011  0.64679888  0.49229289     0.09100
H941        H  0.05315709  0.67680767  0.48900262     0.09100
H942        H  0.13777077  0.54101172  0.51119132     0.09100
H943        H  0.16541886  0.57387024  0.51401810     0.09100
H944        H  0.15829507  0.55774317  0.49446371     0.05800
C945        C  0.45772555  0.51759286  0.57018363    -0.20000
C946        C  0.45504550  0.98620816  0.56444013    -0.06500
C947        C  0.48292186  0.97051839  0.55867684     0.14300
C948        C  0.01249321  0.98629173  0.55924377    -0.20000
C949        C  0.01531624  0.51751379  0.56517261    -0.06500
C950        C  0.48729711  0.53349870  0.57061684     0.14300
C951        C  0.48810490  0.56704613  0.57716577    -0.23400
H952        H  0.43646004  0.52977163  0.57454015     0.15600
H953        H  0.03368334  0.97407946  0.55482610     0.15600
C954        C  0.48187791  0.93751059  0.55146538    -0.23300
H955        H  0.46416533  0.57509122  0.58136886     0.05900
H956        H  0.49582362  0.58391346  0.56770618     0.09100
H957        H  0.50475319  0.56822634  0.58749354     0.09100
H958        H  0.46455700  0.93707301  0.54139498     0.09100
H959        H  0.47491143  0.91978796  0.56066808     0.09100
H960        H  0.00555522  0.93000588  0.54669410     0.05800
C961        C  0.24024263  0.96773099  0.56723159    -0.20000
C962        C  0.26712498  0.98695242  0.56420355    -0.06500
C963        C  0.26222357  0.51993492  0.56116587     0.14300
C964        C  0.23098833  0.53254738  0.56150737    -0.20000
C965        C  0.20414537  0.51340769  0.56474570    -0.06500
C966        C  0.20898890  0.98032297  0.56749457     0.14300
C967        C  0.18166732  0.95783034  0.57075469    -0.23400
H968        H  0.24361505  0.94248539  0.56945884     0.15600
H969        H  0.22760761  0.55777844  0.55922363     0.15600
C970        C  0.28945652  0.54230594  0.55751535    -0.23300
H971        H  0.19008690  0.93290599  0.57260969     0.05900
H972        H  0.16497549  0.95766046  0.56042673     0.09100
H973        H  0.16880715  0.96530093  0.58175198     0.09100
H974        H  0.30219691  0.53425043  0.54658297     0.09100
H975        H  0.30627352  0.54310507  0.56778021     0.09100
H976        H  0.28095580  0.56709814  0.55533320     0.05800
C977        C  0.00196145  0.96830136  0.43409234    -0.20000
C978        C  0.46896213  0.96591846  0.43703248    -0.06500
C979        C  0.45132676  0.99438052  0.44011618     0.14300
C980        C  0.46714321  0.52393426  0.44008923    -0.20000
C981        C  0.00013408  0.52631566  0.43716324    -0.06500
C982        C  0.01776801  0.49788215  0.43406150     0.14300
C983        C  0.05312014  0.49817032  0.43039531    -0.23400
H984        H  0.01563670  0.94674107  0.43168349     0.15600
H985        H  0.45348428  0.54550400  0.44251233     0.15600
C986        C  0.41589639  0.49423843  0.44363984    -0.23300
H987        H  0.06246455  0.97389691  0.42766583     0.05900
H988        H  0.06665662  0.50721140  0.44086047     0.09100
H989        H  0.05773490  0.51341448  0.41979319     0.09100
H990        H  0.41107074  0.97932517  0.45434442     0.09100
H991        H  0.40252527  0.98493412  0.43318661     0.09100
H992        H  0.40651899  0.51859429  0.44615028     0.05800
C993        C  0.46719406  0.71840069  0.43500625    -0.20000
C994        C  0.00043166  0.71629307  0.43741024    -0.06500
C995        C  0.01794824  0.74500979  0.43950213     0.14300
C996        C  0.00173860  0.77450948  0.43913203    -0.20000
C997        C  0.46846341  0.77656768  0.43684357    -0.06500
C998        C  0.45099100  0.74787849  0.43468660     0.14300
C999        C  0.41534209  0.74772095  0.43181385    -0.23400
H1000       H  0.45356799  0.69666878  0.43332585     0.15600
H1001       H  0.01531541  0.79627963  0.44080157     0.15600
C1002       C  0.05364009  0.74521507  0.44225860    -0.23300
H1003       H  0.40610146  0.72319514  0.42984299     0.05900
H1004       H  0.40953873  0.76198878  0.42100259     0.09100
H1005       H  0.40265152  0.75763212  0.44236682     0.09100
H1006       H  0.06615373  0.73455907  0.43183097     0.09100
H1007       H  0.05953102  0.73165584  0.45328351     0.09100
H1008       H  0.06299504  0.76981752  0.44380999     0.05800
C1009       C  0.39642620  0.86340863  0.49735221    -0.20000
C1010       C  0.38217281  0.88025962  0.48467568    -0.06500
C1011       C  0.35887728  0.90390068  0.48814870     0.14300
C1012       C  0.35215495  0.91144174  0.50416109    -0.20000
C1013       C  0.36785677  0.89595416  0.51687398    -0.06500
C1014       C  0.38944180  0.87069937  0.51337968     0.14300
C1015       C  0.40646179  0.85225951  0.52633712    -0.23400
H1016       H  0.41396837  0.84503526  0.49469379     0.15600
H1017       H  0.33525774  0.93044238  0.50675661     0.15600
C1018       C  0.34228852  0.92263052  0.47514584    -0.23300
H1019       H  0.42270568  0.83370560  0.52134549     0.05900
H1020       H  0.38867121  0.83997033  0.53400305     0.09100
H1021       H  0.42117025  0.86868953  0.53368716     0.09100
H1022       H  0.32815765  0.90624562  0.46749801     0.09100
H1023       H  0.36025044  0.93537267  0.46776441     0.09100
H1024       H  0.32551459  0.94075288  0.48009684     0.05800
C1025       C  0.09327658  0.61899136  0.36240834    -0.20000
C1026       C  0.12632597  0.62481223  0.36191120    -0.06500
C1027       C  0.14309779  0.62889569  0.37652091     0.14300
C1028       C  0.12624507  0.62764738  0.39102947    -0.20000
C1029       C  0.09310242  0.62219362  0.39152728    -0.06500
C1030       C  0.07647562  0.61737509  0.37691848     0.14300
C1031       C  0.04116251  0.61005914  0.37629682    -0.23400
H1032       H  0.08042143  0.61540090  0.35132078     0.15600
H1033       H  0.13916678  0.63118309  0.40210047     0.15600
C1034       C  0.17861594  0.63515210  0.37711028    -0.23300
H1035       H  0.03274126  0.60582262  0.36388879     0.05900
H1036       H  0.02717664  0.63050557  0.38110158     0.09100
H1037       H  0.03609961  0.58812415  0.38329757     0.09100
H1038       H  0.18431286  0.65698613  0.37016112     0.09100
H1039       H  0.19192853  0.61435390  0.37220271     0.09100
H1040       H  0.18723753  0.63892383  0.38952231     0.05800
C1041       C  0.13498031  0.57343661  0.24598673    -0.20000
C1042       C  0.11873330  0.59557711  0.23629172    -0.06500
C1043       C  0.10910602  0.62524724  0.24291796     0.14300
C1044       C  0.11735284  0.63243970  0.25886608    -0.20000
C1045       C  0.13521602  0.61078841  0.26810348    -0.06500
C1046       C  0.14344473  0.58068378  0.26171826     0.14300
C1047       C  0.16096196  0.55589147  0.27153869    -0.23400
H1048       H  0.14203004  0.55052271  0.24108738     0.15600
H1049       H  0.11076879  0.65530454  0.26395787     0.15600
C1050       C  0.08980745  0.64905778  0.23342270    -0.23300
H1051       H  0.16425086  0.53317914  0.26486968     0.05900
H1052       H  0.14711469  0.55057225  0.28253964     0.09100
H1053       H  0.18505817  0.56468350  0.27489051     0.09100
H1054       H  0.06748521  0.63768569  0.22905348     0.09100
H1055       H  0.10398546  0.65779074  0.22311818     0.09100
H1056       H  0.08297397  0.67011781  0.24075643     0.05800
C1057       C  0.23913569  0.97014069  0.18499783    -0.20000
C1058       C  0.26608486  0.98990791  0.18665603    -0.06500
C1059       C  0.26128414  0.52323353  0.18848465     0.14300
C1060       C  0.23001336  0.53567602  0.18830635    -0.20000
C1061       C  0.20305543  0.51599816  0.18643823    -0.06500
C1062       C  0.20782009  0.98258539  0.18487155     0.14300
C1063       C  0.18037157  0.95961180  0.18298917    -0.23400
H1064       H  0.24253380  0.94466053  0.18368868     0.15600
H1065       H  0.22669500  0.56115739  0.18969399     0.15600
C1066       C  0.28867115  0.54608313  0.19090779    -0.23300
H1067       H  0.18877756  0.93452386  0.18180093     0.05900
H1068       H  0.16650154  0.96554172  0.17205639     0.09100
H1069       H  0.16460534  0.96078034  0.19365296     0.09100
H1070       H  0.30441410  0.54603191  0.18022856     0.09100
H1071       H  0.30258609  0.53912229  0.20167850     0.09100
H1072       H  0.28019854  0.57100435  0.19270478     0.05800
C1073       C  0.47993075  0.97356348  0.19293602    -0.20000
C1074       C  0.45338941  0.99166543  0.18781291    -0.06500
C1075       C  0.45828827  0.52368079  0.18286523     0.14300
C1076       C  0.48936726  0.53626005  0.18302327    -0.20000
C1077       C  0.01587185  0.51788311  0.18779990    -0.06500
C1078       C  0.01100638  0.98611374  0.19298510     0.14300
C1079       C  0.03813615  0.96541768  0.19895970    -0.23400
H1080       H  0.47642322  0.94917198  0.19693716     0.15600
H1081       H  0.49306843  0.56068979  0.17910373     0.15600
C1082       C  0.43130879  0.54480387  0.17711890    -0.23300
H1083       H  0.02953469  0.94194852  0.20336625     0.05900
H1084       H  0.05053269  0.97748908  0.20901201     0.09100
H1085       H  0.05533745  0.96062746  0.18913974     0.09100
H1086       H  0.41361201  0.54839769  0.18685001     0.09100
H1087       H  0.41956644  0.53380652  0.16657718     0.09100
H1088       H  0.43990813  0.56877972  0.17344982     0.05800
C1089       C  0.32722673  0.86451406  0.37352391    -0.20000
C1090       C  0.34504870  0.87355958  0.36001781    -0.06500
C1091       C  0.37777470  0.88141614  0.36198209     0.14300
C1092       C  0.39147650  0.88021885  0.37731150    -0.20000
C1093       C  0.37358323  0.87138938  0.39083822    -0.06500
C1094       C  0.34096716  0.86317023  0.38883324     0.14300
C1095       C  0.32040441  0.85226111  0.40257779    -0.23400
H1096       H  0.30234304  0.85822835  0.37211480     0.15600
H1097       H  0.41635339  0.88653883  0.37873116     0.15600
C1098       C  0.39851912  0.89168668  0.34817569    -0.23300
H1099       H  0.29602663  0.84539553  0.39859478     0.05900
H1100       H  0.31762295  0.87183964  0.41141344     0.09100
H1101       H  0.33147097  0.83104233  0.40836195     0.09100
H1102       H  0.38802526  0.91317153  0.34237740     0.09100
H1103       H  0.40065015  0.87197551  0.33936486     0.09100
H1104       H  0.42312618  0.89786046  0.35209326     0.05800
C1105       C  0.26391108  0.99715084  0.32052742    -0.20000
C1106       C  0.24491311  0.97078165  0.31628625    -0.06500
C1107       C  0.21237704  0.97618885  0.31224258     0.14300
C1108       C  0.20016168  0.50754347  0.31237615    -0.20000
C1109       C  0.21931874  0.53390044  0.31644659    -0.06500
C1110       C  0.25170509  0.52844365  0.32068379     0.14300
C1111       C  0.27371086  0.55514655  0.32562053    -0.23400
H1112       H  0.28874401  0.99337193  0.32372445     0.15600
H1113       H  0.17537062  0.51146709  0.30912481     0.15600
C1114       C  0.19018819  0.94939001  0.30768163    -0.23300
H1115       H  0.29778744  0.54617093  0.32909148     0.05900
H1116       H  0.26352575  0.56793449  0.33608759     0.09100
H1117       H  0.27705713  0.57198924  0.31552461     0.09100
H1118       H  0.18826620  0.93213665  0.31770574     0.09100
H1119       H  0.19929365  0.93712076  0.29682617     0.09100
H1120       H  0.16565592  0.95818859  0.30497156     0.05800
C1121       C  0.21743582  0.78094773  0.31370993    -0.20000
C1122       C  0.25097546  0.78272404  0.31436775    -0.06500
C1123       C  0.26885068  0.75384516  0.31517975     0.14300
C1124       C  0.25266373  0.72444440  0.31534876    -0.20000
C1125       C  0.21907336  0.72268004  0.31460643    -0.06500
C1126       C  0.20126197  0.75160890  0.31373287     0.14300
C1127       C  0.16520150  0.75226595  0.31278811    -0.23400
H1128       H  0.20355599  0.80284559  0.31304344     0.15600
H1129       H  0.26654403  0.70255106  0.31602754     0.15600
C1130       C  0.30491610  0.75343332  0.31604855    -0.23300
H1131       H  0.15559765  0.77702105  0.31219598     0.05900
H1132       H  0.15483532  0.74085550  0.32357037     0.09100
H1133       H  0.15710689  0.73967628  0.30184290     0.09100
H1134       H  0.31305370  0.76692346  0.32671418     0.09100
H1135       H  0.31511346  0.76411320  0.30504115     0.09100
H1136       H  0.31461377  0.72876469  0.31704370     0.05800
C1137       C  0.36139209  0.92786787  0.24815991    -0.20000
C1138       C  0.35376557  0.90682763  0.23561787    -0.06500
C1139       C  0.33946992  0.87710305  0.23933680     0.14300
C1140       C  0.33124186  0.87035599  0.25525824    -0.20000
C1141       C  0.33745993  0.89212572  0.26759604    -0.06500
C1142       C  0.35346804  0.92091609  0.26407446     0.14300
C1143       C  0.36048373  0.94532076  0.27684693    -0.23400
H1144       H  0.37265128  0.95045451  0.24545074     0.15600
H1145       H  0.31913322  0.84824531  0.25806707     0.15600
C1146       C  0.33147799  0.85285756  0.22665562    -0.23300
H1147       H  0.37196784  0.96700105  0.27184574     0.05900
H1148       H  0.37705371  0.93498883  0.28585629     0.09100
H1149       H  0.33787460  0.95281923  0.28276856     0.09100
H1150       H  0.35369650  0.84510441  0.22046658     0.09100
H1151       H  0.31443211  0.86332706  0.21790349     0.09100
H1152       H  0.32015173  0.83122850  0.23179917     0.05800
C1153       C  0.35633172  0.89238071  0.11192163    -0.20000
C1154       C  0.36523083  0.86003941  0.11141729    -0.06500
C1155       C  0.37368017  0.84452415  0.12590698     0.14300
C1156       C  0.37236610  0.86162968  0.14036696    -0.20000
C1157       C  0.36321027  0.89395118  0.14087903    -0.06500
C1158       C  0.35513239  0.90952217  0.12633542     0.14300
C1159       C  0.34451044  0.94398769  0.12574157    -0.23400
H1160       H  0.34979711  0.90439618  0.10089352     0.15600
H1161       H  0.37885813  0.84961877  0.15139522     0.15600
C1162       C  0.38488596  0.81024382  0.12632688    -0.23300
H1163       H  0.33785724  0.95153800  0.11344930     0.05900
H1164       H  0.36425370  0.95973176  0.12973947     0.09100
H1165       H  0.32316460  0.94751030  0.13345594     0.09100
H1166       H  0.40595580  0.80715649  0.11837581     0.09100
H1167       H  0.36529023  0.79418789  0.12247335     0.09100
H1168       H  0.39214860  0.80276173  0.13854335     0.05800
C1169       C  0.32829483  0.88736405  0.99765303    -0.20000
C1170       C  0.34274732  0.87045152  0.98501789    -0.06500
C1171       C  0.36629624  0.84709253  0.98867159     0.14300
C1172       C  0.37271604  0.83963241  0.00472996    -0.20000
C1173       C  0.35653003  0.85488738  0.01732878    -0.06500
C1174       C  0.33491613  0.88002331  0.01372825     0.14300
C1175       C  0.31734045  0.89806382  0.02663909    -0.23400
H1176       H  0.31068201  0.90564689  0.99494295     0.15600
H1177       H  0.38973632  0.82080908  0.00746265     0.15600
C1178       C  0.38364563  0.82857672  0.97584915    -0.23300
H1179       H  0.30089739  0.91639722  0.02160308     0.05900
H1180       H  0.33476388  0.91054377  0.03444341     0.09100
H1181       H  0.30278805  0.88130421  0.03387614     0.09100
H1182       H  0.39732664  0.84522137  0.96814040     0.09100
H1183       H  0.36622780  0.81497263  0.96852524     0.09100
H1184       H  0.40096361  0.81115611  0.98096563     0.05800
C1185       C  0.25609619  0.72400193  0.94104876    -0.20000
C1186       C  0.22364992  0.72148223  0.93685984    -0.06500
C1187       C  0.20642453  0.74984750  0.93311244     0.14300
C1188       C  0.22218765  0.77943581  0.93350077    -0.20000
C1189       C  0.25463221  0.78199156  0.93770027    -0.06500
C1190       C  0.27174876  0.75364376  0.94167490     0.14300
C1191       C  0.30636245  0.75401535  0.94683599    -0.23400
H1192       H  0.26937819  0.70251988  0.94407505     0.15600
H1193       H  0.20887212  0.80088390  0.93046970     0.15600
C1194       C  0.17148829  0.74954268  0.92854241    -0.23300
H1195       H  0.31531284  0.72974902  0.94989561     0.05900
H1196       H  0.30911181  0.76914712  0.95764491     0.09100
H1197       H  0.32159623  0.76320036  0.93701178     0.09100
H1198       H  0.15692977  0.74057105  0.93867314     0.09100
H1199       H  0.16791547  0.73424831  0.91785759     0.09100
H1200       H  0.16241746  0.77380357  0.92556901     0.05800
C1201       C  0.22333104  0.97446803  0.94153134    -0.20000
C1202       C  0.25588773  0.97181157  0.93755094    -0.06500
C1203       C  0.27308053  0.50009481  0.93390608     0.14300
C1204       C  0.25705512  0.52968798  0.93402678    -0.20000
C1205       C  0.22438802  0.53227518  0.93781502    -0.06500
C1206       C  0.20742656  0.00408678  0.94186580     0.14300
C1207       C  0.17271469  0.00462248  0.94684149    -0.23400
H1208       H  0.21007550  0.95308433  0.94454389     0.15600
H1209       H  0.27030536  0.55110430  0.93104602     0.15600
C1210       C  0.30822497  0.49971517  0.92975876    -0.23300
H1211       H  0.16397142  0.98048902  0.95013837     0.05900
H1212       H  0.15756364  0.51330147  0.93683465     0.09100
H1213       H  0.16960066  0.52024655  0.95745827     0.09100
H1214       H  0.31234988  0.98473291  0.91899666     0.09100
H1215       H  0.32232654  0.99034026  0.93998842     0.09100
H1216       H  0.31734996  0.52400971  0.92707356     0.05800
C1217       C  0.10265729  0.65920475  0.12354933    -0.20000
C1218       C  0.10998912  0.64064342  0.11001184    -0.06500
C1219       C  0.11667762  0.60771202  0.11210222     0.14300
C1220       C  0.11570917  0.59451205  0.12751927    -0.20000
C1221       C  0.10857771  0.61307715  0.14108988    -0.06500
C1222       C  0.10190656  0.64604351  0.13899690     0.14300
C1223       C  0.09377369  0.66769203  0.15282630    -0.23400
H1224       H  0.09740774  0.68445320  0.12205593     0.15600
H1225       H  0.12100718  0.56926260  0.12896358     0.15600
C1226       C  0.12569854  0.58627597  0.09832088    -0.23300
H1227       H  0.08856816  0.69248554  0.14883873     0.05900
H1228       H  0.11427853  0.66882700  0.16124362     0.09100
H1229       H  0.07218598  0.65872386  0.15908976     0.09100
H1230       H  0.14726902  0.59575604  0.09222885     0.09100
H1231       H  0.10550485  0.58469215  0.08974276     0.09100
H1232       H  0.13135370  0.56159463  0.10233206     0.05800
C1233       C  0.21016969  0.76783990  0.06505658    -0.20000
C1234       C  0.20829728  0.73438840  0.06442907    -0.06500
C1235       C  0.23726780  0.71645102  0.06413619     0.14300
C1236       C  0.26677928  0.73247715  0.06447520    -0.20000
C1237       C  0.26863110  0.76594888  0.06511161    -0.06500
C1238       C  0.23964503  0.78385817  0.06542114     0.14300
C1239       C  0.23907531  0.81986406  0.06614224    -0.23400
H1240       H  0.18821919  0.78179858  0.06527768     0.15600
H1241       H  0.28874529  0.71854147  0.06422851     0.15600
C1242       C  0.23774106  0.68044268  0.06351003    -0.23300
H1243       H  0.21427400  0.82954743  0.06633550     0.05900
H1244       H  0.25111591  0.82991922  0.05545519     0.09100
H1245       H  0.25113514  0.82815702  0.07720456     0.09100
H1246       H  0.22580652  0.67205802  0.05243210     0.09100
H1247       H  0.22549135  0.67055405  0.07417706     0.09100
H1248       H  0.26252378  0.67070253  0.06343735     0.05800
C1249       C  0.46055249  0.73443657  0.06024116    -0.20000
C1250       C  0.45798304  0.76656236  0.06488040    -0.06500
C1251       C  0.48623299  0.78320571  0.06918070     0.14300
C1252       C  0.01588352  0.76726151  0.06870635    -0.20000
C1253       C  0.01849499  0.73514953  0.06401156    -0.06500
C1254       C  0.49023139  0.71856616  0.05961030     0.14300
C1255       C  0.49080859  0.68438377  0.05390787    -0.23400
H1256       H  0.43906700  0.72161683  0.05683457     0.15600
H1257       H  0.03732505  0.78012577  0.07212832     0.15600
C1258       C  0.48561206  0.81757707  0.07457809    -0.23300
H1259       H  0.46662835  0.67594589  0.05040053     0.05900
H1260       H  0.49947115  0.66845383  0.06360074     0.09100
H1261       H  0.50653763  0.68216649  0.04326553     0.09100
H1262       H  0.46957090  0.82024048  0.08507566     0.09100
H1263       H  0.47726011  0.83316974  0.06468230     0.09100
H1264       H  0.00973458  0.82606607  0.07815512     0.05800
C1265       C  0.11254280  0.65629538  0.98673512    -0.20000
C1266       C  0.13588390  0.63262462  0.98432894    -0.06500
C1267       C  0.14787639  0.61551594  0.99764904     0.14300
C1268       C  0.13834934  0.62455051  0.01308692    -0.20000
C1269       C  0.11781498  0.65070891  0.01559348    -0.06500
C1270       C  0.10360123  0.66589712  0.00218016     0.14300
C1271       C  0.07933773  0.69245473  0.00393075    -0.23400
H1272       H  0.10277925  0.66889494  0.97647247     0.15600
H1273       H  0.14864460  0.61227969  0.02331506     0.15600
C1274       C  0.17081569  0.58785507  0.99573337    -0.23300
H1275       H  0.06895371  0.69950536  0.99221660     0.05900
H1276       H  0.09076223  0.71399495  0.00906729     0.09100
H1277       H  0.05939933  0.68453555  0.01173161     0.09100
H1278       H  0.19412625  0.59629299  0.99106313     0.09100
H1279       H  0.16052067  0.56994224  0.98742818     0.09100
H1280       H  0.17560160  0.57575877  0.00731186     0.05800
C1281       C  0.37946753  0.87173305  0.88985719    -0.20000
C1282       C  0.34634214  0.87730154  0.89037685    -0.06500
C1283       C  0.32964789  0.88205866  0.87577652     0.14300
C1284       C  0.34642840  0.88012314  0.86122598    -0.20000
C1285       C  0.37947807  0.87366054  0.86070848    -0.06500
C1286       C  0.39625999  0.86988744  0.87536613     0.14300
C1287       C  0.43190478  0.86406017  0.87611386    -0.23400
H1288       H  0.39244858  0.86836399  0.90094194     0.15600
H1289       H  0.33347462  0.88354250  0.85014003     0.15600
C1290       C  0.29433067  0.88965614  0.87525960    -0.23300
H1291       H  0.44075723  0.86249904  0.88860824     0.05900
H1292       H  0.44476706  0.88405354  0.87027062     0.09100
H1293       H  0.43795246  0.84110429  0.87018320     0.09100
H1294       H  0.28931073  0.91151796  0.88236040     0.09100
H1295       H  0.28041679  0.86928104  0.88005053     0.09100
H1296       H  0.28582142  0.89408782  0.86287420     0.05800
C1297       C  0.36177887  0.85894200  0.61152806    -0.20000
C1298       C  0.35882853  0.89234255  0.61102976    -0.06500
C1299       C  0.35506799  0.90922570  0.62562881     0.14300
C1300       C  0.35472541  0.89228365  0.64012470    -0.20000
C1301       C  0.35811952  0.85890698  0.64064204    -0.06500
C1302       C  0.36152957  0.84199462  0.62601274     0.14300
C1303       C  0.36464634  0.80610244  0.62532000    -0.23400
H1304       H  0.36457629  0.84583758  0.60043018     0.15600
H1305       H  0.35194697  0.90541297  0.65121408     0.15600
C1306       C  0.35089791  0.94500675  0.62621113    -0.23300
H1307       H  0.36618864  0.79719272  0.61283803     0.05900
H1308       H  0.34338808  0.79486066  0.63090559     0.09100
H1309       H  0.38680767  0.79832699  0.63155315     0.09100
H1310       H  0.32972110  0.95219766  0.61901597     0.09100
H1311       H  0.37270976  0.95686882  0.62157992     0.09100
H1312       H  0.34702758  0.95377418  0.63859383     0.05800
C1313       C  0.36071444  0.84888751  0.76384866    -0.20000
C1314       C  0.38878281  0.86664835  0.76619588    -0.06500
C1315       C  0.40505976  0.87887733  0.75263350     0.14300
C1316       C  0.39401469  0.87114820  0.73725919    -0.20000
C1317       C  0.36781732  0.85080713  0.73498844    -0.06500
C1318       C  0.35030284  0.84036748  0.74847445     0.14300
C1319       C  0.32073907  0.82010407  0.74682904    -0.23400
H1320       H  0.34775490  0.83998665  0.77414270     0.15600
H1321       H  0.40721796  0.87947366  0.72691587     0.15600
C1322       C  0.43431306  0.89967686  0.75408934    -0.23300
H1323       H  0.30882511  0.81623768  0.75853310     0.05900
H1324       H  0.32709499  0.79625437  0.74198577     0.09100
H1325       H  0.30329372  0.83207061  0.73877617     0.09100
H1326       H  0.45454699  0.88579629  0.75920318     0.09100
H1327       H  0.42889501  0.92063137  0.76177162     0.09100
H1328       H  0.44229550  0.90877456  0.74227974     0.05800
C1329       C  0.12584076  0.63985729  0.61294091    -0.20000
C1330       C  0.11067697  0.61011377  0.61138728    -0.06500
C1331       C  0.09501231  0.59687448  0.62489553     0.14300
C1332       C  0.09547116  0.61342229  0.63947044    -0.20000
C1333       C  0.11064105  0.64303343  0.64099402    -0.06500
C1334       C  0.12607214  0.65647360  0.62753612     0.14300
C1335       C  0.14377346  0.68771921  0.62854537    -0.23400
H1336       H  0.13790799  0.65007683  0.60270280     0.15600
H1337       H  0.08345803  0.60331116  0.64975999     0.15600
C1338       C  0.07697312  0.56577645  0.62413419    -0.23300
H1339       H  0.15598500  0.69359940  0.61713793     0.05900
H1340       H  0.16228968  0.68635214  0.63805371     0.09100
H1341       H  0.12678847  0.70746011  0.63119900     0.09100
H1342       H  0.09373879  0.54578627  0.62159668     0.09100
H1343       H  0.05826043  0.56711827  0.61472205     0.09100
H1344       H  0.06483533  0.56024195  0.63560676     0.05800
C1345       C  0.48723815  0.71712703  0.68981515    -0.20000
C1346       C  0.01425057  0.73663614  0.68761503    -0.06500
C1347       C  0.00950225  0.76981457  0.68514132     0.14300
C1348       C  0.47824117  0.78231367  0.68503039    -0.20000
C1349       C  0.45126349  0.76281559  0.68720901    -0.06500
C1350       C  0.45594117  0.72963153  0.68961523     0.14300
C1351       C  0.42837647  0.70709233  0.69222584    -0.23400
H1352       H  0.49055818  0.69178784  0.69174240     0.15600
H1353       H  0.47490498  0.80765201  0.68309918     0.15600
C1354       C  0.03692985  0.79243187  0.68235086    -0.23300
H1355       H  0.43668642  0.68223962  0.69439965     0.05900
H1356       H  0.41281466  0.70667933  0.68147242     0.09100
H1357       H  0.41429027  0.71474469  0.70281677     0.09100
H1358       H  0.05073820  0.78482218  0.67166236     0.09100
H1359       H  0.05275586  0.79292376  0.69300447     0.09100
H1360       H  0.02851306  0.81726362  0.68020911     0.05800
C1361       C  0.23718731  0.78286232  0.68601667    -0.20000
C1362       C  0.26460485  0.76323102  0.68600915    -0.06500
C1363       C  0.26052048  0.72961714  0.68585927     0.14300
C1364       C  0.22943792  0.71689435  0.68593917    -0.20000
C1365       C  0.20202598  0.73655109  0.68624513    -0.06500
C1366       C  0.20612709  0.77015264  0.68618581     0.14300
C1367       C  0.17820661  0.79312174  0.68633960    -0.23400
H1368       H  0.23997914  0.80852809  0.68603097     0.15600
H1369       H  0.22662485  0.69123322  0.68590106     0.15600
C1370       C  0.28847073  0.70668069  0.68568539    -0.23300
H1371       H  0.18610708  0.81840252  0.68606913     0.05900
H1372       H  0.16398094  0.78982091  0.69741567     0.09100
H1373       H  0.16293295  0.78916289  0.67566644     0.09100
H1374       H  0.30321691  0.70997760  0.69659737     0.09100
H1375       H  0.30323804  0.71069496  0.67484737     0.09100
H1376       H  0.28058134  0.68139244  0.68548154     0.05800
C1377       C  0.08097920  0.62050210  0.87416663    -0.20000
C1378       C  0.09984291  0.62203523  0.86026981    -0.06500
C1379       C  0.13339733  0.62551339  0.86187694     0.14300
C1380       C  0.14704793  0.62640758  0.87721000    -0.20000
C1381       C  0.12828902  0.62422684  0.89113094    -0.06500
C1382       C  0.09459460  0.62161676  0.88951719     0.14300
C1383       C  0.07249579  0.61999201  0.90374248    -0.23400
H1384       H  0.05534221  0.61816632  0.87304468     0.15600
H1385       H  0.17268394  0.62886062  0.87827358     0.15600
C1386       C  0.15518245  0.62903713  0.84762447    -0.23300
H1387       H  0.04699201  0.61825169  0.90011265     0.05900
H1388       H  0.07497774  0.64192872  0.91108833     0.09100
H1389       H  0.07819184  0.59855878  0.91103439     0.09100
H1390       H  0.14747167  0.64983600  0.84031486     0.09100
H1391       H  0.15470520  0.60696119  0.84029427     0.09100
H1392       H  0.18042565  0.63308485  0.85122894     0.05800
C1393       C  0.45446742  0.74691742  0.81421192    -0.20000
C1394       C  0.47440325  0.77397053  0.81402688    -0.06500
C1395       C  0.00803169  0.76921197  0.81368036     0.14300
C1396       C  0.02047159  0.73799315  0.81342169    -0.20000
C1397       C  0.00061458  0.71093739  0.81371659    -0.06500
C1398       C  0.46698743  0.71561865  0.81416973     0.14300
C1399       C  0.44390519  0.68806756  0.81471021    -0.23400
H1400       H  0.42878867  0.75019568  0.81451937     0.15600
H1401       H  0.04615119  0.73481084  0.81311237     0.15600
C1402       C  0.03137629  0.79659448  0.81362948    -0.23300
H1403       H  0.41860652  0.69631281  0.81502651     0.05900
H1404       H  0.44818742  0.67362307  0.82563702     0.09100
H1405       H  0.44690156  0.67294802  0.80391206     0.09100
H1406       H  0.02843751  0.81100493  0.82467435     0.09100
H1407       H  0.02739401  0.81175511  0.80292311     0.09100
H1408       H  0.05662501  0.78820464  0.81327862     0.05800
C1409       C  0.02442270  0.99633598  0.81723521    -0.20000
C1410       C  0.00466798  0.52364128  0.81634437    -0.06500
C1411       C  0.47100580  0.51940572  0.81600170     0.14300
C1412       C  0.45836232  0.48841292  0.81617616    -0.20000
C1413       C  0.47805013  0.96109926  0.81670118    -0.06500
C1414       C  0.01168791  0.96525100  0.81747125     0.14300
C1415       C  0.03455710  0.93735984  0.81851214    -0.23400
H1416       H  0.05010941  0.99924896  0.81768154     0.15600
H1417       H  0.43266273  0.48560674  0.81575115     0.15600
C1418       C  0.44783071  0.54710885  0.81529265    -0.23300
H1419       H  0.05986904  0.94523178  0.81921313     0.05900
H1420       H  0.03220527  0.92210622  0.80772898     0.09100
H1421       H  0.02946012  0.92315899  0.82941842     0.09100
H1422       H  0.45198000  0.56124052  0.80426754     0.09100
H1423       H  0.45076312  0.56243206  0.82601659     0.09100
H1424       H  0.42253213  0.53908652  0.81505252     0.05800
C1425       C  0.07839081  0.61065942  0.75397762    -0.20000
C1426       C  0.09255083  0.62729406  0.76671226    -0.06500
C1427       C  0.11543001  0.65120566  0.76327473     0.14300
C1428       C  0.12154086  0.65934300  0.74728102    -0.20000
C1429       C  0.10546133  0.64439630  0.73458253    -0.06500
C1430       C  0.08446798  0.61881839  0.73798989     0.12700
C1431       C  0.06682294  0.60117599  0.72500899    -0.23400
H1432       H  0.06125545  0.59197775  0.75656987     0.15600
H1433       H  0.13807173  0.67856688  0.74469960     0.15600
C1434       C  0.13214056  0.66966329  0.77628142    -0.23300
H1435       H  0.05097135  0.58237611  0.72994770     0.05900
H1436       H  0.08421523  0.58930751  0.71690340     0.09100
H1437       H  0.05158569  0.61807504  0.71812921     0.09100
H1438       H  0.14646602  0.65310547  0.78381340     0.09100
H1439       H  0.11424251  0.68241411  0.78376304     0.09100
H1440       H  0.14875132  0.68779474  0.77133420     0.05800
O1441       O  0.50424583  0.08159177  0.81574834    -0.57500
C1442       C  0.51642920  0.17880809  0.81374374     0.75200
O1443       O  0.59795009  0.11450176  0.83156151    -0.58600
C1444       C  0.52010566  0.05576042  0.81564697     0.75100
C1445       C  0.57967533  0.12196284  0.78305281     0.77500
Cd1446     Cd  0.55019737  0.11799615  0.81422908     1.37500
O1447       O  0.50130228  0.15267420  0.81433292    -0.57500
O1448       O  0.55127860  0.11240104  0.78507419    -0.56300
C1449       C  0.58338881  0.12044922  0.84449796     0.77500
O1450       O  0.59542646  0.12778297  0.79564144    -0.58700
O1451       O  0.54658211  0.17626373  0.81327424    -0.57100
O1452       O  0.55021642  0.05880671  0.81485542    -0.57100
O1453       O  0.55349489  0.12478044  0.84332243    -0.56300
O1454       O  0.64399370  0.23642755  0.68777406    -0.57500
C1455       C  0.54653608  0.22119087  0.68769245     0.75200
O1456       O  0.61042867  0.14289947  0.66969037    -0.58600
C1457       C  0.66999564  0.22090656  0.68668946     0.75100
C1458       C  0.60828470  0.15865497  0.71837881     0.77500
Cd1459     Cd  0.60856254  0.18964069  0.68755064     1.37500
O1460       O  0.57241654  0.23678121  0.68808293    -0.57500
O1461       O  0.61517945  0.18782579  0.71663659    -0.56300
C1462       C  0.61002644  0.15886260  0.65682172     0.77500
O1463       O  0.60295090  0.14319225  0.70565854    -0.58700
O1464       O  0.54960596  0.19114448  0.68736187    -0.57100
O1465       O  0.66729631  0.19081814  0.68607893    -0.57100
O1466       O  0.60855378  0.18888125  0.65825608    -0.56300
O1467       O  0.89318345  0.26306985  0.68577494    -0.57500
C1468       C  0.79658807  0.27899404  0.68633418     0.75200
O1469       O  0.86732899  0.35502556  0.70626787    -0.58600
C1470       C  0.91911467  0.27840102  0.68714901     0.75100
C1471       C  0.85792786  0.34285734  0.65656969     0.77500
Cd1472     Cd  0.85787262  0.31066379  0.68714596     1.37500
O1473       O  0.82271540  0.26356001  0.68657718    -0.57500
O1474       O  0.86453677  0.31359488  0.65821941    -0.56300
C1475       C  0.86177883  0.33849979  0.71864710     0.77500
O1476       O  0.85130183  0.35778747  0.66935175    -0.58700
O1477       O  0.79910968  0.30912733  0.68648561    -0.57100
O1478       O  0.91631183  0.30838623  0.68840882    -0.57100
O1479       O  0.85288315  0.31008910  0.71628890    -0.56300
O1480       O  0.97502962  0.33199226  0.81493884    -0.57500
C1481       C  0.96211232  0.42925396  0.81613569     0.75200
O1482       O  0.88422508  0.36461374  0.79494829    -0.58600
C1483       C  0.95911857  0.30636286  0.81422006     0.75100
C1484       C  0.89553806  0.37147273  0.84480046     0.77500
Cd1485     Cd  0.92876517  0.36892846  0.81448755     1.37500
O1486       O  0.97721956  0.40296070  0.81640706    -0.57500
O1487       O  0.92464801  0.36375695  0.84338218    -0.56300
C1488       C  0.90154908  0.36942095  0.78274493     0.77500
O1489       O  0.88090792  0.37729425  0.83182996    -0.58700
O1490       O  0.93196930  0.42712128  0.81516270    -0.57100
O1491       O  0.92900872  0.30983006  0.81369677    -0.57100
O1492       O  0.93074559  0.37493483  0.78546508    -0.56300
O1493       O  0.57629975  0.23633587  0.06533241    -0.57500
C1494       C  0.67584591  0.21945714  0.06419603     0.75200
O1495       O  0.61036674  0.14184667  0.08100036    -0.58600
C1496       C  0.55090784  0.22003468  0.06389227     0.75100
C1497       C  0.61430271  0.16313930  0.03211713     0.77500
Cd1498     Cd  0.61317053  0.18987922  0.06383730     1.37500
O1499       O  0.65036414  0.23600645  0.06493620    -0.57500
O1500       O  0.60885722  0.19235159  0.03481828    -0.56300
C1501       C  0.61110029  0.15682758  0.09415134     0.77500
O1502       O  0.61848137  0.14558138  0.04430402    -0.58700
O1503       O  0.67189576  0.18963184  0.06328587    -0.57100
O1504       O  0.55482940  0.19021545  0.06251076    -0.57100
O1505       O  0.61270055  0.18691784  0.09311483    -0.56300
O1506       O  0.72534045  0.16366931  0.93745840    -0.57500
C1507       C  0.70912421  0.06458750  0.93744467     0.75200
O1508       O  0.63277828  0.13272723  0.95560696    -0.58600
C1509       C  0.70876946  0.18909565  0.93672413     0.75100
C1510       C  0.64502607  0.12488478  0.90687938     0.77500
Cd1511     Cd  0.67863658  0.12676142  0.93701159     1.37500
O1512       O  0.72535730  0.08989915  0.93571445    -0.57500
O1513       O  0.67520709  0.12692240  0.90774837    -0.56300
C1514       C  0.64947158  0.12886896  0.96811205     0.77500
O1515       O  0.63043524  0.12344784  0.92011083    -0.58700
O1516       O  0.67922884  0.06851184  0.93871672    -0.57100
O1517       O  0.67885201  0.18520787  0.93605282    -0.57100
O1518       O  0.67896762  0.12353286  0.96604227    -0.56300
O1519       O  0.75330371  0.33974549  0.93548857    -0.57500
C1520       C  0.77072320  0.43929414  0.93743064     0.75200
O1521       O  0.84510842  0.36741632  0.95606012    -0.58600
C1522       C  0.76952779  0.31441807  0.93770988     0.75100
C1523       C  0.83049427  0.37759762  0.90634741     0.77500
Cd1524     Cd  0.79995370  0.37673495  0.93736469     1.37500
O1525       O  0.75408166  0.41416015  0.93897522    -0.57500
O1526       O  0.80049312  0.37574058  0.90798454    -0.56300
C1527       C  0.82974801  0.37494005  0.96857599     0.77500
O1528       O  0.84651789  0.37907435  0.91921121    -0.58700
O1529       O  0.80054237  0.43499241  0.93587871    -0.57100
O1530       O  0.79915851  0.31843278  0.93977765    -0.57100
O1531       O  0.80157463  0.38530279  0.96641267    -0.56300
O1532       O  0.82664202  0.26475636  0.06477245    -0.57500
C1533       C  0.92561404  0.28170236  0.06498596     0.75200
O1534       O  0.85629322  0.35770206  0.04630131    -0.58600
C1535       C  0.80099832  0.28107749  0.06527025     0.75100
C1536       C  0.86506865  0.34359667  0.09561282     0.77500
Cd1537     Cd  0.86319790  0.31176901  0.06492634     1.37500
O1538       O  0.90018027  0.26524330  0.06507798    -0.57500
O1539       O  0.86369028  0.31355581  0.09430694    -0.56300
C1540       C  0.86021246  0.34142230  0.03368609     0.77500
O1541       O  0.86563665  0.35907650  0.08258888    -0.58700
O1542       O  0.92176368  0.31166098  0.06477687    -0.57100
O1543       O  0.80467638  0.31095869  0.06581807    -0.57100
O1544       O  0.86673197  0.31216627  0.03568518    -0.56300
O1545       O  0.74592382  0.41303863  0.31264378    -0.57500
C1546       C  0.76592531  0.31507442  0.31430529     0.75200
O1547       O  0.83926414  0.39098864  0.29634485    -0.58600
C1548       C  0.76055133  0.43864355  0.31593234     0.75100
C1549       C  0.82825810  0.37493888  0.34433454     0.77500
Cd1550     Cd  0.79432002  0.37803752  0.31439799     1.37500
O1551       O  0.74932942  0.34022962  0.31624274    -0.57500
O1552       O  0.79799472  0.37507608  0.34354665    -0.56300
C1553       C  0.82391041  0.38575227  0.28357983     0.77500
O1554       O  0.84289698  0.37587924  0.33109483    -0.58700
O1555       O  0.79560792  0.31931139  0.31224450    -0.57100
O1556       O  0.79008915  0.43557264  0.31881463    -0.57100
O1557       O  0.79567756  0.37545387  0.28512413    -0.56300
O1558       O  0.89558309  0.49095733  0.18523450    -0.57500
C1559       C  0.79840247  0.47462916  0.18663426     0.75200
O1560       O  0.86229709  0.39527213  0.16980127    -0.58600
C1561       C  0.92150528  0.47588186  0.18756228     0.75100
C1562       C  0.85787782  0.41842241  0.21895002     0.77500
Cd1563     Cd  0.86054394  0.44392162  0.18704450     1.37500
O1564       O  0.82408707  0.49033897  0.18530564    -0.57500
O1565       O  0.85961440  0.44800825  0.21604977    -0.56300
C1566       C  0.86235747  0.41046835  0.15668590     0.77500
O1567       O  0.85878630  0.40006547  0.20690099    -0.58700
O1568       O  0.80169704  0.44467497  0.18787900    -0.57100
O1569       O  0.91888713  0.44607188  0.18968448    -0.57100
O1570       O  0.86187356  0.44052804  0.15786809    -0.56300
O1571       O  0.72014278  0.16496801  0.31598371    -0.57500
C1572       C  0.70434827  0.06628877  0.31625627     0.75200
O1573       O  0.62636720  0.13011588  0.33316907    -0.58600
C1574       C  0.70378911  0.19044026  0.31479767     0.75100
C1575       C  0.64707831  0.11996666  0.28401087     0.77500
Cd1576     Cd  0.67368693  0.12809061  0.31532371     1.37500
O1577       O  0.72043275  0.09190056  0.31659671    -0.57500
O1578       O  0.67681350  0.12048918  0.28674207    -0.56300
C1579       C  0.64218373  0.12636265  0.34599173     0.77500
O1580       O  0.62862587  0.12578711  0.29569498    -0.58700
O1581       O  0.67425523  0.06965942  0.31559675    -0.57100
O1582       O  0.67385249  0.18666188  0.31379539    -0.57100
O1583       O  0.67213946  0.12369371  0.34439561    -0.56300
O1584       O  0.57348533  0.01705086  0.18578764    -0.57500
C1585       C  0.67083586  0.03154889  0.18633045     0.75200
O1586       O  0.60689593  0.11174888  0.17015834    -0.58600
C1587       C  0.54788294  0.03300068  0.18745724     0.75100
C1588       C  0.61321799  0.08622242  0.21942808     0.77500
Cd1589     Cd  0.60934435  0.06321441  0.18713615     1.37500
O1590       O  0.64490947  0.01602463  0.18573530    -0.57500
O1591       O  0.61099447  0.05705212  0.21575276    -0.56300
C1592       C  0.60849539  0.09687231  0.15698056     0.77500
O1593       O  0.61231082  0.10597176  0.20793255    -0.58700
O1594       O  0.66792496  0.06163926  0.18694968    -0.57100
O1595       O  0.55092117  0.06296672  0.18865357    -0.57100
O1596       O  0.61038611  0.06677340  0.15799484    -0.56300
O1597       O  0.97045983  0.40805862  0.43609286    -0.57500
C1598       C  0.95317453  0.30890386  0.43680332     0.75200
O1599       O  0.87817288  0.37875439  0.45582032    -0.58600
C1600       C  0.95399979  0.43356373  0.43682327     0.75100
C1601       C  0.89005172  0.37096053  0.40663161     0.77500
Cd1602     Cd  0.92335113  0.37149095  0.43692403     1.37500
O1603       O  0.96963021  0.33426970  0.43611026    -0.57500
O1604       O  0.92028025  0.37112936  0.40760756    -0.56300
C1605       C  0.89497513  0.37524293  0.46831052     0.77500
O1606       O  0.87513351  0.37084866  0.41980165    -0.58700
O1607       O  0.92317949  0.31285212  0.43760838    -0.57100
O1608       O  0.92407559  0.42979480  0.43731794    -0.57100
O1609       O  0.92412920  0.36816649  0.46615088    -0.56300
O1610       O  0.82518926  0.48659262  0.56209204    -0.57500
C1611       C  0.92296380  0.47079488  0.56454051     0.75200
O1612       O  0.85655527  0.39280162  0.58219574    -0.58600
C1613       C  0.79940425  0.47140393  0.56428385     0.75100
C1614       C  0.86380072  0.40936146  0.53323228     0.77500
Cd1615     Cd  0.86114199  0.43967935  0.56432323     1.37500
O1616       O  0.89720584  0.48688743  0.56512264    -0.57500
O1617       O  0.85550641  0.43816209  0.53520033    -0.56300
C1618       C  0.85958679  0.40836670  0.59511244     0.77500
O1619       O  0.86930886  0.39363081  0.54587298    -0.58700
O1620       O  0.91972811  0.44083745  0.56419052    -0.57100
O1621       O  0.80253330  0.44166858  0.56659811    -0.57100
O1622       O  0.86352972  0.43812574  0.59359292    -0.56300
O1623       O  0.57307063  0.01568492  0.56403819    -0.57500
C1624       C  0.67197303  0.02916073  0.56513338     0.75200
O1625       O  0.60420950  0.10609925  0.54595956    -0.58600
C1626       C  0.54773799  0.03230309  0.56538078     0.75100
C1627       C  0.61136519  0.09386373  0.59557091     0.77500
Cd1628     Cd  0.61050946  0.06138366  0.56519226     1.37500
O1629       O  0.64610254  0.01405763  0.56726543    -0.57500
O1630       O  0.60636362  0.06426164  0.59416030    -0.56300
C1631       C  0.60772800  0.08853971  0.53372859     0.77500
O1632       O  0.61706211  0.10883024  0.58270441    -0.58700
O1633       O  0.66905480  0.05903982  0.56329223    -0.57100
O1634       O  0.55177398  0.06207131  0.56669409    -0.57100
O1635       O  0.61314805  0.05930171  0.53628558    -0.56300
O1636       O  0.49835709  0.08412960  0.43724509    -0.57500
C1637       C  0.51553227  0.18385657  0.43761383     0.75200
O1638       O  0.58959781  0.11632392  0.45721711    -0.58600
C1639       C  0.51500743  0.05869968  0.43742440     0.75100
C1640       C  0.57699201  0.12180632  0.40742203     0.77500
Cd1641     Cd  0.54488684  0.12114444  0.43791356     1.37500
O1642       O  0.49897632  0.15858456  0.43657664    -0.57500
O1643       O  0.54689341  0.12137900  0.40882572    -0.56300
C1644       C  0.57207228  0.12021303  0.46944663     0.77500
O1645       O  0.59268827  0.12219046  0.42040751    -0.58700
O1646       O  0.54544709  0.17971332  0.43876052    -0.57100
O1647       O  0.54494459  0.06258961  0.43796194    -0.57100
O1648       O  0.54264059  0.12504927  0.46687454    -0.56300
C1649       C  0.58034547  0.12456183  0.51466760    -0.20000
C1650       C  0.60354253  0.10083655  0.51728868    -0.06500
C1651       C  0.61974669  0.08731756  0.50403208     0.14300
C1652       C  0.61039273  0.09599947  0.48852263    -0.20000
C1653       C  0.58481565  0.11718389  0.48590075    -0.06500
C1654       C  0.57047408  0.13270849  0.49915971     0.14300
C1655       C  0.54468404  0.15771777  0.49715487    -0.23400
H1656       H  0.56839245  0.13541388  0.52484716     0.15600
H1657       H  0.62193066  0.08464009  0.47836508     0.15600
C1658       C  0.64678835  0.06366016  0.50606769    -0.23300
H1659       H  0.53825215  0.16903823  0.50873282     0.05900
H1660       H  0.52259103  0.14680634  0.49229288     0.09100
H1661       H  0.55316238  0.17681050  0.48900198     0.09100
H1662       H  0.63776099  0.04100577  0.51119163     0.09100
H1663       H  0.66541206  0.07386205  0.51401789     0.09100
H1664       H  0.65828622  0.05773484  0.49446373     0.05800
C1665       C  0.95772591  0.01759536  0.57018364    -0.20000
C1666       C  0.95504603  0.48620531  0.56443878    -0.06500
C1667       C  0.98292420  0.47051261  0.55867952     0.14300
C1668       C  0.51249272  0.48629248  0.55924125    -0.20000
C1669       C  0.51531580  0.01751561  0.56517421    -0.06500
C1670       C  0.98729757  0.03350102  0.57061617     0.14300
C1671       C  0.98810515  0.06705042  0.57716258    -0.23400
H1672       H  0.93646009  0.02977555  0.57453916     0.15600
H1673       H  0.53368275  0.47408162  0.55482260     0.15600
C1674       C  0.98188319  0.43750038  0.55147302    -0.23300
H1675       H  0.96416525  0.07509710  0.58136449     0.05900
H1676       H  0.99582494  0.08391478  0.56770188     0.09100
H1677       H  0.00475242  0.06823359  0.58749067     0.09100
H1678       H  0.96456609  0.43705647  0.54140108     0.09100
H1679       H  0.97491348  0.41978339  0.56067786     0.09100
H1680       H  0.50555500  0.43000879  0.54668906     0.05800
C1681       C  0.74023994  0.46772707  0.56722393    -0.20000
C1682       C  0.76712367  0.48695092  0.56420268    -0.06500
C1683       C  0.76222257  0.01993541  0.56116546     0.14300
C1684       C  0.73098734  0.03254786  0.56150689    -0.20000
C1685       C  0.70414457  0.01340861  0.56474621    -0.06500
C1686       C  0.70898608  0.48031895  0.56748625     0.14300
C1687       C  0.68166292  0.45782358  0.57073831    -0.23400
H1688       H  0.74361134  0.44247962  0.56944617     0.15600
H1689       H  0.72760644  0.05777858  0.55922230     0.15600
C1690       C  0.78945531  0.04230606  0.55751401    -0.23300
H1691       H  0.69008141  0.43289722  0.57258775     0.05900
H1692       H  0.66497460  0.45766455  0.56040887     0.09100
H1693       H  0.66879915  0.46528322  0.58173639     0.09100
H1694       H  0.80219521  0.03424939  0.54658170     0.09100
H1695       H  0.80627277  0.04310633  0.56777866     0.09100
H1696       H  0.78095448  0.06709801  0.55533129     0.05800
C1697       C  0.50196082  0.46829992  0.43409380    -0.20000
C1698       C  0.96895907  0.46591863  0.43703222    -0.06500
C1699       C  0.95132278  0.49438256  0.44011025     0.14300
C1700       C  0.96714333  0.02393580  0.44008678    -0.20000
C1701       C  0.50013445  0.02631662  0.43716350    -0.06500
C1702       C  0.51776728  0.99788521  0.43405556     0.14300
C1703       C  0.55311605  0.99817706  0.43038142    -0.23400
H1704       H  0.51563586  0.44673953  0.43168452     0.15600
H1705       H  0.95348403  0.04550574  0.44250948     0.15600
C1706       C  0.91589595  0.99424016  0.44363577    -0.23300
H1707       H  0.56246386  0.47389509  0.42766713     0.05900
H1708       H  0.56666170  0.00721337  0.44084466     0.09100
H1709       H  0.55772034  0.01342709  0.41978025     0.09100
H1710       H  0.91105654  0.47933580  0.45433355     0.09100
H1711       H  0.90252579  0.48493398  0.43317356     0.09100
H1712       H  0.90651799  0.01859628  0.44614507     0.05800
C1713       C  0.96719535  0.21840203  0.43500786    -0.20000
C1714       C  0.50043013  0.21629366  0.43740848    -0.06500
C1715       C  0.51794473  0.24500928  0.43950822     0.14300
C1716       C  0.50173548  0.27450921  0.43913799    -0.20000
C1717       C  0.96846336  0.27656916  0.43684447    -0.06500
C1718       C  0.95099172  0.24787950  0.43468766     0.14300
C1719       C  0.91534297  0.24772098  0.43181438    -0.23400
H1720       H  0.95356989  0.19667001  0.43332760     0.15600
H1721       H  0.51531025  0.29627826  0.44081374     0.15600
C1722       C  0.55363379  0.24521312  0.44227381    -0.23300
H1723       H  0.90610305  0.22319491  0.42984355     0.05900
H1724       H  0.90953993  0.26198838  0.42100294     0.09100
H1725       H  0.90265149  0.25763212  0.44236710     0.09100
H1726       H  0.56615818  0.23456394  0.43184766     0.09100
H1727       H  0.55951360  0.23164679  0.45329802     0.09100
H1728       H  0.56298695  0.26981464  0.44383153     0.05800
C1729       C  0.89642376  0.36340493  0.49735270    -0.20000
C1730       C  0.88217108  0.38025686  0.48467629    -0.06500
C1731       C  0.85887700  0.40389917  0.48814939     0.14300
C1732       C  0.85215533  0.41144047  0.50416176    -0.20000
C1733       C  0.86785628  0.39595189  0.51687459    -0.06500
C1734       C  0.88943977  0.37069581  0.51338022     0.14300
C1735       C  0.90645848  0.35225474  0.52633764    -0.23400
H1736       H  0.91396506  0.34503070  0.49469412     0.15600
H1737       H  0.83525914  0.43044233  0.50675735     0.15600
C1738       C  0.84228950  0.42263013  0.47514652    -0.23300
H1739       H  0.92270128  0.33369989  0.52134596     0.05900
H1740       H  0.88866704  0.33996660  0.53400348     0.09100
H1741       H  0.92116784  0.36868377  0.53368778     0.09100
H1742       H  0.82815741  0.40624621  0.46749874     0.09100
H1743       H  0.86025228  0.43537089  0.46776503     0.09100
H1744       H  0.82551692  0.44075374  0.48009754     0.05800
C1745       C  0.59327839  0.11895983  0.36240871    -0.20000
C1746       C  0.62632087  0.12481778  0.36191037    -0.06500
C1747       C  0.64308720  0.12893867  0.37651880     0.14300
C1748       C  0.62623579  0.12768746  0.39102765    -0.20000
C1749       C  0.59309976  0.12219530  0.39152670    -0.06500
C1750       C  0.57647894  0.11734085  0.37691924     0.14300
C1751       C  0.54117489  0.10998185  0.37629984    -0.23400
H1752       H  0.58042850  0.11534117  0.35132198     0.15600
H1753       H  0.63915256  0.13125191  0.40209755     0.15600
C1754       C  0.67859716  0.13524063  0.37710598    -0.23300
H1755       H  0.53275948  0.10571809  0.36389318     0.05900
H1756       H  0.52716429  0.13041831  0.38109731     0.09100
H1757       H  0.53613802  0.08805060  0.38330830     0.09100
H1758       H  0.68426670  0.15707084  0.37014807     0.09100
H1759       H  0.69193623  0.11445147  0.37220671     0.09100
H1760       H  0.68721328  0.13904267  0.38951659     0.05800
C1761       C  0.63497923  0.07344216  0.24598683    -0.20000
C1762       C  0.61873283  0.09558191  0.23629112    -0.06500
C1763       C  0.60910366  0.12525190  0.24291696     0.14300
C1764       C  0.61734831  0.13244508  0.25886532    -0.20000
C1765       C  0.63521089  0.11079441  0.26810336    -0.06500
C1766       C  0.64344120  0.08068992  0.26171861     0.14300
C1767       C  0.66095819  0.05589865  0.27153980    -0.23400
H1768       H  0.64203039  0.05052833  0.24108791     0.15600
H1769       H  0.61076321  0.15530974  0.26395674     0.15600
C1770       C  0.58980566  0.14906180  0.23342099    -0.23300
H1771       H  0.66424953  0.03318647  0.26487095     0.05900
H1772       H  0.64710937  0.05057874  0.28254018     0.09100
H1773       H  0.68505327  0.06469217  0.27489267     0.09100
H1774       H  0.56748440  0.13768898  0.22905099     0.09100
H1775       H  0.60398489  0.15779520  0.22311698     0.09100
H1776       H  0.58297042  0.17012163  0.24075446     0.05800
C1777       C  0.73913368  0.47013968  0.18499776    -0.20000
C1778       C  0.76608300  0.48990662  0.18665623    -0.06500
C1779       C  0.76128587  0.02323664  0.18848030     0.14300
C1780       C  0.73001510  0.03567930  0.18830213    -0.20000
C1781       C  0.70305674  0.01600076  0.18643722    -0.06500
C1782       C  0.70781822  0.48258472  0.18487106     0.14300
C1783       C  0.68036965  0.45961146  0.18298797    -0.23400
H1784       H  0.74253154  0.44465966  0.18368869     0.15600
H1785       H  0.72669723  0.06116066  0.18968736     0.15600
C1786       C  0.78867321  0.04608719  0.19090018    -0.23300
H1787       H  0.68877549  0.43452356  0.18179943     0.05900
H1788       H  0.66650026  0.46554218  0.17205509     0.09100
H1789       H  0.66460284  0.46077942  0.19365156     0.09100
H1790       H  0.80441476  0.04603161  0.18022042     0.09100
H1791       H  0.80258955  0.03913072  0.20167117     0.09100
H1792       H  0.78020096  0.07100910  0.19269495     0.05800
C1793       C  0.97992826  0.47355930  0.19293620    -0.20000
C1794       C  0.95338729  0.49166127  0.18781260    -0.06500
C1795       C  0.95829046  0.02368148  0.18286432     0.14300
C1796       C  0.98936935  0.03626084  0.18302311    -0.20000
C1797       C  0.51587398  0.01788724  0.18779927    -0.06500
C1798       C  0.51100495  0.48611286  0.19298486     0.14300
C1799       C  0.53813507  0.46541703  0.19895926    -0.23400
H1800       H  0.97642041  0.44916832  0.19693738     0.15600
H1801       H  0.99307078  0.06069071  0.17910354     0.15600
C1802       C  0.93131156  0.04480426  0.17711704    -0.23300
H1803       H  0.52953387  0.44194798  0.20336608     0.05900
H1804       H  0.55053205  0.47748873  0.20901134     0.09100
H1805       H  0.55533591  0.46062662  0.18913913     0.09100
H1806       H  0.91361363  0.04839839  0.18684760     0.09100
H1807       H  0.91957051  0.03380651  0.16657506     0.09100
H1808       H  0.93991124  0.06878002  0.17344798     0.05800
C1809       C  0.82722674  0.36451312  0.37352364    -0.20000
C1810       C  0.84504783  0.37356486  0.36001824    -0.06500
C1811       C  0.87777206  0.38142770  0.36198335     0.14300
C1812       C  0.89147331  0.38022967  0.37731287    -0.20000
C1813       C  0.87358106  0.37139332  0.39083880    -0.06500
C1814       C  0.84096675  0.36316860  0.38883303     0.14300
C1815       C  0.82040572  0.35225207  0.40257673    -0.23400
H1816       H  0.80234491  0.35822285  0.37211392     0.15600
H1817       H  0.91634861  0.38655418  0.37873328     0.15600
C1818       C  0.89851508  0.39170541  0.34817779    -0.23300
H1819       H  0.79602962  0.34538226  0.39859307     0.05900
H1820       H  0.81761979  0.37182803  0.41141347     0.09100
H1821       H  0.83147657  0.33103432  0.40835985     0.09100
H1822       H  0.88801704  0.41318927  0.34238044     0.09100
H1823       H  0.90065075  0.37199649  0.33936597     0.09100
H1824       H  0.92312058  0.39788351  0.35209604     0.05800
C1825       C  0.76390377  0.49714906  0.32053657    -0.20000
C1826       C  0.74491129  0.47078203  0.31628593    -0.06500
C1827       C  0.71238052  0.47619155  0.31223219     0.14300
C1828       C  0.70015838  0.00754258  0.31237926    -0.20000
C1829       C  0.71931721  0.03390131  0.31644479    -0.06500
C1830       C  0.75170682  0.02844649  0.32067664     0.14300
C1831       C  0.77371620  0.05515137  0.32560668    -0.23400
H1832       H  0.78873284  0.49336826  0.32374154     0.15600
H1833       H  0.67536474  0.01146454  0.30913168     0.15600
C1834       C  0.69019799  0.44939526  0.30765980    -0.23300
H1835       H  0.79779604  0.04617740  0.32907311     0.05900
H1836       H  0.76353994  0.06794204  0.33607502     0.09100
H1837       H  0.77705335  0.07199115  0.31550876     0.09100
H1838       H  0.68826058  0.43213732  0.31768115     0.09100
H1839       H  0.69931958  0.43713082  0.29680633     0.09100
H1840       H  0.66566993  0.45819561  0.30494159     0.05800
C1841       C  0.71743768  0.28094706  0.31371211    -0.20000
C1842       C  0.75097722  0.28272277  0.31437084    -0.06500
C1843       C  0.76885172  0.25384355  0.31518395     0.14300
C1844       C  0.75266400  0.22444311  0.31535271    -0.20000
C1845       C  0.71907365  0.22267943  0.31460916    -0.06500
C1846       C  0.70126313  0.25160873  0.31373489     0.14300
C1847       C  0.66520280  0.25226683  0.31278885    -0.23400
H1848       H  0.70355825  0.30284537  0.31304483     0.15600
H1849       H  0.76654388  0.20254915  0.31603226     0.15600
C1850       C  0.80491698  0.25343134  0.31605424    -0.23300
H1851       H  0.65559976  0.27702216  0.31219584     0.05900
H1852       H  0.65483475  0.24085775  0.32357103     0.09100
H1853       H  0.65710934  0.23967644  0.30184363     0.09100
H1854       H  0.81305297  0.26692258  0.32671982     0.09100
H1855       H  0.81511632  0.26410994  0.30504700     0.09100
H1856       H  0.81461408  0.22876262  0.31705045     0.05800
C1857       C  0.86139407  0.42786099  0.24816002    -0.20000
C1858       C  0.85376299  0.40682291  0.23561782    -0.06500
C1859       C  0.83946274  0.37710044  0.23933655     0.14300
C1860       C  0.83123498  0.37035371  0.25525805    -0.20000
C1861       C  0.83745781  0.39212156  0.26759605    -0.06500
C1862       C  0.85347032  0.42090955  0.26407460     0.14300
C1863       C  0.86049109  0.44531220  0.27684733    -0.23400
H1864       H  0.87265687  0.45044631  0.24545093     0.15600
H1865       H  0.81912283  0.34824472  0.25806680     0.15600
C1866       C  0.83146568  0.35285709  0.22665515    -0.23300
H1867       H  0.87197830  0.46699097  0.27184624     0.05900
H1868       H  0.87706020  0.43497701  0.28585615     0.09100
H1869       H  0.83788369  0.45281392  0.28276958     0.09100
H1870       H  0.85368240  0.34510075  0.22046547     0.09100
H1871       H  0.81442068  0.36332989  0.21790359     0.09100
H1872       H  0.82013637  0.33122952  0.23179860     0.05800
C1873       C  0.85633328  0.39238052  0.11192154    -0.20000
C1874       C  0.86522622  0.36003755  0.11141759    -0.06500
C1875       C  0.87366804  0.34452018  0.12590780     0.14300
C1876       C  0.87235402  0.36162587  0.14036771    -0.20000
C1877       C  0.86320479  0.39394927  0.14087935    -0.06500
C1878       C  0.85513338  0.40952195  0.12633528     0.14300
C1879       C  0.84451844  0.44398956  0.12574068    -0.23400
H1880       H  0.84980411  0.40439762  0.10089301     0.15600
H1881       H  0.87884065  0.34961327  0.15139633     0.15600
C1882       C  0.88486521  0.31023710  0.12632850    -0.23300
H1883       H  0.83787081  0.45154141  0.11344790     0.05900
H1884       H  0.86426349  0.45972967  0.12974029     0.09100
H1885       H  0.82317059  0.44751622  0.13345322     0.09100
H1886       H  0.90593705  0.30714468  0.11837926     0.09100
H1887       H  0.86526673  0.29418614  0.12247324     0.09100
H1888       H  0.89212180  0.30275297  0.13854557     0.05800
C1889       C  0.82829736  0.38736598  0.99765304    -0.20000
C1890       C  0.84274931  0.37045278  0.98501796    -0.06500
C1891       C  0.86629824  0.34709382  0.98867175     0.14300
C1892       C  0.87271836  0.33963442  0.00473012    -0.20000
C1893       C  0.85653267  0.35488971  0.01732889    -0.06500
C1894       C  0.83491895  0.38002575  0.01372829     0.14300
C1895       C  0.81734373  0.39806690  0.02663908    -0.23400
H1896       H  0.81068453  0.40564895  0.99494291     0.15600
H1897       H  0.88973889  0.32081070  0.00746294     0.15600
C1898       C  0.88364712  0.32857732  0.97584939    -0.23300
H1899       H  0.80090091  0.41640046  0.02160301     0.05900
H1900       H  0.83476749  0.41054672  0.03444327     0.09100
H1901       H  0.80279112  0.38130772  0.03387628     0.09100
H1902       H  0.89732786  0.34522152  0.96814030     0.09100
H1903       H  0.86622900  0.31497284  0.96852584     0.09100
H1904       H  0.90096528  0.31115693  0.98096596     0.05800
C1905       C  0.75609504  0.22400274  0.94104959    -0.20000
C1906       C  0.72364969  0.22148261  0.93685920    -0.06500
C1907       C  0.70642489  0.24984757  0.93311055     0.14300
C1908       C  0.72218778  0.27943601  0.93349923    -0.20000
C1909       C  0.75463153  0.28199204  0.93770031    -0.06500
C1910       C  0.77174744  0.25364449  0.94167613     0.14300
C1911       C  0.80636011  0.25401649  0.94683889    -0.23400
H1912       H  0.76937680  0.20252039  0.94407690     0.15600
H1913       H  0.70887282  0.30088380  0.93046721     0.15600
C1914       C  0.67148956  0.24954227  0.92853873    -0.23300
H1915       H  0.81530999  0.22975029  0.94989922     0.05900
H1916       H  0.80910733  0.26914874  0.95764775     0.09100
H1917       H  0.82159577  0.26320104  0.93701530     0.09100
H1918       H  0.65692897  0.24057155  0.93866891     0.09100
H1919       H  0.66791900  0.23424686  0.91785409     0.09100
H1920       H  0.66241929  0.27380288  0.92556430     0.05800
C1921       C  0.72333137  0.47446830  0.94153295    -0.20000
C1922       C  0.75588805  0.47181165  0.93755247    -0.06500
C1923       C  0.77308161  0.00009561  0.93390580     0.14300
C1924       C  0.75705620  0.02968889  0.93402640    -0.20000
C1925       C  0.72438870  0.03227586  0.93781394    -0.06500
C1926       C  0.70742708  0.50408719  0.94186735     0.14300
C1927       C  0.67271524  0.50462308  0.94684309    -0.23400
H1928       H  0.71007581  0.45308495  0.94454545     0.15600
H1929       H  0.77030642  0.05110497  0.93104609     0.15600
C1930       C  0.80822622  0.99971595  0.92975889    -0.23300
H1931       H  0.66397182  0.48048971  0.95013996     0.05900
H1932       H  0.65756451  0.01330171  0.93683138     0.09100
H1933       H  0.66959900  0.02024679  0.95745536     0.09100
H1934       H  0.81235134  0.48473401  0.91899861     0.09100
H1935       H  0.82232659  0.49033923  0.93999071     0.09100
H1936       H  0.81735129  0.02401040  0.92707369     0.05800
C1937       C  0.60266036  0.15920785  0.12354827    -0.20000
C1938       C  0.60999237  0.14064632  0.11001084    -0.06500
C1939       C  0.61668215  0.10771525  0.11210136     0.14300
C1940       C  0.61571421  0.09451545  0.12751850    -0.20000
C1941       C  0.60858206  0.11308068  0.14108900    -0.06500
C1942       C  0.60191027  0.14604683  0.13899591     0.14300
C1943       C  0.59377710  0.16769544  0.15282522    -0.23400
H1944       H  0.59741012  0.18445564  0.12205478     0.15600
H1945       H  0.62101292  0.06926662  0.12896291     0.15600
C1946       C  0.62570391  0.08627934  0.09832011    -0.23300
H1947       H  0.58857098  0.19248873  0.14883756     0.05900
H1948       H  0.61428205  0.16883103  0.16124247     0.09100
H1949       H  0.57218970  0.15872690  0.15908881     0.09100
H1950       H  0.64727381  0.09576037  0.09222793     0.09100
H1951       H  0.60551018  0.08469435  0.08974207     0.09100
H1952       H  0.63136035  0.06159840  0.10233141     0.05800
C1953       C  0.71016866  0.26784253  0.06505582    -0.20000
C1954       C  0.70829617  0.23439112  0.06442657    -0.06500
C1955       C  0.73726663  0.21645382  0.06413184     0.14300
C1956       C  0.76677824  0.23247979  0.06447126    -0.20000
C1957       C  0.76863010  0.26595142  0.06510955    -0.06500
C1958       C  0.73964411  0.28386069  0.06542053     0.14300
C1959       C  0.73907452  0.31986641  0.06614359    -0.23400
H1960       H  0.68821838  0.28180106  0.06527822     0.15600
H1961       H  0.78874383  0.21854436  0.06422327     0.15600
C1962       C  0.73773989  0.18044566  0.06350319    -0.23300
H1963       H  0.71427328  0.32954974  0.06633828     0.05900
H1964       H  0.75111348  0.32992385  0.05545662     0.09100
H1965       H  0.75113609  0.32815700  0.07720588     0.09100
H1966       H  0.72580389  0.17206406  0.05242505     0.09100
H1967       H  0.72549159  0.17055403  0.07416993     0.09100
H1968       H  0.76252258  0.17070555  0.06342903     0.05800
C1969       C  0.96055172  0.23443768  0.06024122    -0.20000
C1970       C  0.95798250  0.26656366  0.06488028    -0.06500
C1971       C  0.98623258  0.28320693  0.06918047     0.14300
C1972       C  0.51588169  0.26726246  0.06870942    -0.20000
C1973       C  0.51849371  0.23515231  0.06401158    -0.06500
C1974       C  0.99023055  0.21856703  0.05961059     0.14300
C1975       C  0.99080755  0.18438450  0.05390836    -0.23400
H1976       H  0.93906644  0.22161810  0.05683470     0.15600
H1977       H  0.53732254  0.28012501  0.07213367     0.15600
C1978       C  0.98561216  0.31757865  0.07457730    -0.23300
H1979       H  0.96662731  0.17594673  0.05040098     0.05900
H1980       H  0.99946987  0.16845472  0.06360136     0.09100
H1981       H  0.00653673  0.18216686  0.04326610     0.09100
H1982       H  0.96957143  0.32024291  0.08507498     0.09100
H1983       H  0.97726004  0.33317072  0.06468131     0.09100
H1984       H  0.50973140  0.32606336  0.07816361     0.05800
C1985       C  0.61254007  0.15629677  0.98673409    -0.20000
C1986       C  0.63588207  0.13262668  0.98432820    -0.06500
C1987       C  0.64787467  0.11551878  0.99764855     0.14300
C1988       C  0.63834682  0.12455344  0.01308627    -0.20000
C1989       C  0.61781157  0.15071124  0.01559251    -0.06500
C1990       C  0.60359764  0.16589860  0.00217902     0.14300
C1991       C  0.57933295  0.19245519  0.00392937    -0.23400
H1992       H  0.60277629  0.16889573  0.97647127     0.15600
H1993       H  0.64864223  0.11228333  0.02331454     0.15600
C1994       C  0.67081512  0.08785872  0.99573340    -0.23300
H1995       H  0.56894908  0.19950530  0.99221510     0.05900
H1996       H  0.59075629  0.21399591  0.00906601     0.09100
H1997       H  0.55939463  0.18453516  0.01173005     0.09100
H1998       H  0.69412570  0.09629745  0.99106357     0.09100
H1999       H  0.66052134  0.06994533  0.98742812     0.09100
H2000       H  0.67560068  0.07576277  0.00731201     0.05800
C2001       C  0.87946652  0.37173738  0.88985710    -0.20000
C2002       C  0.84634052  0.37730257  0.89037674    -0.06500
C2003       C  0.82964568  0.38205720  0.87577636     0.14300
C2004       C  0.84642614  0.38012153  0.86122580    -0.20000
C2005       C  0.87947635  0.37366176  0.86070831    -0.06500
C2006       C  0.89625891  0.36989231  0.87536599     0.14300
C2007       C  0.93190452  0.36407009  0.87611375    -0.23400
H2008       H  0.89244796  0.36837079  0.90094168     0.15600
H2009       H  0.83347186  0.38353854  0.85013976     0.15600
C2010       C  0.79432796  0.38965220  0.87525944    -0.23300
H2011       H  0.94075755  0.36251268  0.88860812     0.05900
H2012       H  0.94476381  0.38406412  0.87026939     0.09100
H2013       H  0.93795524  0.34111386  0.87018420     0.09100
H2014       H  0.78930668  0.41151440  0.88235971     0.09100
H2015       H  0.78041555  0.36927665  0.88005094     0.09100
H2016       H  0.78581819  0.39408210  0.86287397     0.05800
C2017       C  0.86174592  0.35894383  0.61152927    -0.20000
C2018       C  0.85883310  0.39234763  0.61103182    -0.06500
C2019       C  0.85510835  0.40923470  0.62563212     0.14300
C2020       C  0.85476243  0.39229263  0.64012806    -0.20000
C2021       C  0.85811897  0.35891236  0.64064413    -0.06500
C2022       C  0.86149294  0.34199662  0.62601390     0.14300
C2023       C  0.86456422  0.30610079  0.62532019    -0.23400
H2024       H  0.86451533  0.34583614  0.60043076     0.15600
H2025       H  0.85201220  0.40542440  0.65121843     0.15600
C2026       C  0.85098162  0.44502045  0.62621606    -0.23300
H2027       H  0.86607639  0.29718906  0.61283770     0.05900
H2028       H  0.84330056  0.29488546  0.63091412     0.09100
H2029       H  0.88672561  0.29829804  0.63154481     0.09100
H2030       H  0.82980326  0.45223662  0.61902830     0.09100
H2031       H  0.87280133  0.45685667  0.62157738     0.09100
H2032       H  0.84713869  0.45379209  0.63860013     0.05800
C2033       C  0.86071483  0.34887859  0.76384991    -0.20000
C2034       C  0.88877861  0.36664665  0.76619693    -0.06500
C2035       C  0.90505096  0.37888162  0.75263459     0.14300
C2036       C  0.89400681  0.37115097  0.73726032    -0.20000
C2037       C  0.86781455  0.35080321  0.73498960    -0.06500
C2038       C  0.85030395  0.34035760  0.74847574     0.14300
C2039       C  0.82074521  0.32008678  0.74683068    -0.23400
H2040       H  0.84775880  0.33997312  0.77414397     0.15600
H2041       H  0.90720680  0.37948118  0.72691709     0.15600
C2042       C  0.93429814  0.39968969  0.75409040    -0.23300
H2043       H  0.80883315  0.31621680  0.75853492     0.05900
H2044       H  0.82710680  0.29623884  0.74198707     0.09100
H2045       H  0.80329613  0.33204933  0.73877833     0.09100
H2046       H  0.95453663  0.38581461  0.75920346     0.09100
H2047       H  0.92887444  0.42064176  0.76177338     0.09100
H2048       H  0.94227684  0.40879111  0.74228089     0.05800
C2049       C  0.62584091  0.13985762  0.61294139    -0.20000
C2050       C  0.61067714  0.11011412  0.61138789    -0.06500
C2051       C  0.59501280  0.09687486  0.62489624     0.14300
C2052       C  0.59547223  0.11342268  0.63947111    -0.20000
C2053       C  0.61064200  0.14303386  0.64099455    -0.06500
C2054       C  0.62607258  0.15647409  0.62753651     0.14300
C2055       C  0.64377344  0.18772000  0.62854550    -0.23400
H2056       H  0.63790793  0.15007728  0.60270307     0.15600
H2057       H  0.58345925  0.10331143  0.64976090     0.15600
C2058       C  0.57697322  0.06577703  0.62413501    -0.23300
H2059       H  0.65598454  0.19360021  0.61713793     0.05900
H2060       H  0.66228997  0.18635338  0.63805370     0.09100
H2061       H  0.62678820  0.20746066  0.63119917     0.09100
H2062       H  0.59373855  0.04578666  0.62159733     0.09100
H2063       H  0.55826023  0.06711914  0.61472303     0.09100
H2064       H  0.56483571  0.06024263  0.63560768     0.05800
C2065       C  0.98723798  0.21712586  0.68981379    -0.20000
C2066       C  0.51425124  0.23663851  0.68761552    -0.06500
C2067       C  0.50950327  0.26981750  0.68514334     0.14300
C2068       C  0.97824154  0.28231310  0.68503073    -0.20000
C2069       C  0.95126374  0.26281505  0.68720883    -0.06500
C2070       C  0.95594111  0.22963073  0.68961430     0.14300
C2071       C  0.92837615  0.20709179  0.69222481    -0.23400
H2072       H  0.99055784  0.19178644  0.69174045     0.15600
H2073       H  0.97490551  0.30765173  0.68310015     0.15600
C2074       C  0.53693119  0.29243509  0.68235419    -0.23300
H2075       H  0.93668585  0.18223891  0.69439838     0.05900
H2076       H  0.91281419  0.20667935  0.68147144     0.09100
H2077       H  0.91429017  0.21474403  0.70281583     0.09100
H2078       H  0.55073945  0.28482766  0.67166527     0.09100
H2079       H  0.55275721  0.29292429  0.69300785     0.09100
H2080       H  0.52851474  0.31726745  0.68021387     0.05800
C2081       C  0.73718780  0.28286273  0.68601802    -0.20000
C2082       C  0.76460537  0.26323148  0.68600969    -0.06500
C2083       C  0.76052105  0.22961760  0.68585939     0.14300
C2084       C  0.72943851  0.21689473  0.68593989    -0.20000
C2085       C  0.70202657  0.23655143  0.68624658    -0.06500
C2086       C  0.70612763  0.27015298  0.68618754     0.14300
C2087       C  0.67820712  0.29312204  0.68634187    -0.23400
H2088       H  0.73997959  0.30852849  0.68603259     0.15600
H2089       H  0.72662547  0.19123364  0.68590151     0.15600
C2090       C  0.78847133  0.20668122  0.68568421    -0.23300
H2091       H  0.68610752  0.31840283  0.68607146     0.05900
H2092       H  0.66398203  0.28982086  0.69741809     0.09100
H2093       H  0.66293290  0.28916348  0.67566887     0.09100
H2094       H  0.80321864  0.20997698  0.69659589     0.09100
H2095       H  0.80323750  0.21069669  0.67484592     0.09100
H2096       H  0.78058197  0.18139298  0.68547989     0.05800
C2097       C  0.58098072  0.12049879  0.87416585    -0.20000
C2098       C  0.59984404  0.12203709  0.86026908    -0.06500
C2099       C  0.63339793  0.12552008  0.86187630     0.14300
C2100       C  0.64704840  0.12641412  0.87720938    -0.20000
C2101       C  0.62828997  0.12422802  0.89113024    -0.06500
C2102       C  0.59459598  0.12161270  0.88951642     0.14300
C2103       C  0.57249758  0.11998095  0.90374166    -0.23400
H2104       H  0.55534383  0.11815908  0.87304382     0.15600
H2105       H  0.67268430  0.12887110  0.87827305     0.15600
C2106       C  0.65518242  0.12904891  0.84762391    -0.23300
H2107       H  0.54699409  0.11823653  0.90011177     0.05900
H2108       H  0.57497537  0.14191666  0.91108860     0.09100
H2109       H  0.57819773  0.09854730  0.91103247     0.09100
H2110       H  0.64746851  0.14984756  0.84031498     0.09100
H2111       H  0.65470841  0.10697382  0.84029300     0.09100
H2112       H  0.68042505  0.13309987  0.85122849     0.05800
C2113       C  0.95446791  0.24691761  0.81420968    -0.20000
C2114       C  0.97440377  0.27397071  0.81402590    -0.06500
C2115       C  0.50803211  0.26921051  0.81368212     0.14300
C2116       C  0.52047169  0.23799175  0.81342286    -0.20000
C2117       C  0.50061469  0.21093607  0.81371580    -0.06500
C2118       C  0.96698780  0.21561883  0.81416737     0.14300
C2119       C  0.94390537  0.18806777  0.81470641    -0.23400
H2120       H  0.92878898  0.25019586  0.81451622     0.15600
H2121       H  0.54615205  0.23480931  0.81311474     0.15600
C2122       C  0.53137697  0.29659283  0.81363378    -0.23300
H2123       H  0.91860666  0.19631308  0.81502184     0.05900
H2124       H  0.94818576  0.17362249  0.82563315     0.09100
H2125       H  0.94690344  0.17294901  0.80390812     0.09100
H2126       H  0.52843532  0.31100177  0.82467893     0.09100
H2127       H  0.52739786  0.31175489  0.80292764     0.09100
H2128       H  0.55662577  0.28820277  0.81328435     0.05800
C2129       C  0.52442328  0.49633662  0.81723665    -0.20000
C2130       C  0.50467074  0.02364050  0.81634471    -0.06500
C2131       C  0.97100506  0.01940574  0.81600326     0.14300
C2132       C  0.95836134  0.98841308  0.81617759    -0.20000
C2133       C  0.97804760  0.46109986  0.81670087    -0.06500
C2134       C  0.51168900  0.46525155  0.81747280     0.14300
C2135       C  0.53455824  0.43736071  0.81851528    -0.23400
H2136       H  0.55011058  0.49924999  0.81768410     0.15600
H2137       H  0.93266154  0.98560718  0.81575371     0.15600
C2138       C  0.94783016  0.04710918  0.81529600    -0.23300
H2139       H  0.55987004  0.44523302  0.81921709     0.05900
H2140       H  0.53220832  0.42210605  0.80773241     0.09100
H2141       H  0.52945969  0.42316089  0.82942169     0.09100
H2142       H  0.95197726  0.06124172  0.80427096     0.09100
H2143       H  0.95076497  0.06243144  0.82602009     0.09100
H2144       H  0.92253146  0.03908713  0.81505701     0.05800
C2145       C  0.57839115  0.11065708  0.75397701    -0.20000
C2146       C  0.59255129  0.12729174  0.76671162    -0.06500
C2147       C  0.61543040  0.15120336  0.76327410     0.14300
C2148       C  0.62154117  0.15934079  0.74728041    -0.20000
C2149       C  0.60546127  0.14439430  0.73458197    -0.06500
C2150       C  0.58446807  0.11881627  0.73798927     0.12700
C2151       C  0.56682298  0.10117402  0.72500835    -0.23400
H2152       H  0.56125592  0.09197547  0.75656927     0.15600
H2153       H  0.63807180  0.17856443  0.74469903     0.15600
C2154       C  0.63214088  0.16966125  0.77628072    -0.23300
H2155       H  0.55097162  0.08237394  0.72994703     0.05900
H2156       H  0.58421523  0.08930588  0.71690263     0.09100
H2157       H  0.55158549  0.11807311  0.71812871     0.09100
H2158       H  0.64646647  0.15310360  0.78381275     0.09100
H2159       H  0.61424275  0.18241206  0.78376232     0.09100
H2160       H  0.64875149  0.18779274  0.77133347     0.05800
O2161       O  0.50424555  0.58159213  0.81574813    -0.57500
C2162       C  0.51643095  0.67880707  0.81374530     0.75200
O2163       O  0.59794895  0.61449342  0.83156320    -0.58600
C2164       C  0.52010493  0.55576049  0.81564727     0.75100
C2165       C  0.57967884  0.62196279  0.78305408     0.77500
Cd2166     Cd  0.55019850  0.61799509  0.81422992     1.37500
O2167       O  0.50130381  0.65267318  0.81433327    -0.57500
O2168       O  0.55128254  0.61239947  0.78507506    -0.56300
C2169       C  0.58338815  0.62044651  0.84449914     0.77500
O2170       O  0.59542862  0.62778455  0.79564294    -0.58700
O2171       O  0.54658392  0.67626268  0.81327650    -0.57100
O2172       O  0.55021581  0.55880613  0.81485657    -0.57100
O2173       O  0.55349517  0.62478362  0.84332307    -0.56300
O2174       O  0.64399127  0.73642584  0.68777480    -0.57500
C2175       C  0.54653539  0.72119042  0.68769401     0.75200
O2176       O  0.61042528  0.64289820  0.66969029    -0.58600
C2177       C  0.66999286  0.72090471  0.68668858     0.75100
C2178       C  0.60828689  0.65865365  0.71837970     0.77500
Cd2179     Cd  0.60856076  0.68963895  0.68755111     1.37500
O2180       O  0.57241617  0.73678016  0.68808467    -0.57500
O2181       O  0.61518403  0.68782377  0.71663697    -0.56300
C2182       C  0.61002420  0.65886172  0.65682174     0.77500
O2183       O  0.60294905  0.64319149  0.70565968    -0.58700
O2184       O  0.54960448  0.69114397  0.68736283    -0.57100
O2185       O  0.66729336  0.69081638  0.68607696    -0.57100
O2186       O  0.60855252  0.68888037  0.65825636    -0.56300
O2187       O  0.89318175  0.76306421  0.68577507    -0.57500
C2188       C  0.79658554  0.77899001  0.68633396     0.75200
O2189       O  0.86732501  0.85502239  0.70626597    -0.58600
C2190       C  0.91911281  0.77839621  0.68714767     0.75100
C2191       C  0.85792742  0.84284620  0.65656750     0.77500
Cd2192     Cd  0.85787052  0.81065778  0.68714516     1.37500
O2193       O  0.82271246  0.76355535  0.68657777    -0.57500
O2194       O  0.86453463  0.81358356  0.65821806    -0.56300
C2195       C  0.86177711  0.83849738  0.71864573     0.77500
O2196       O  0.85130087  0.85777748  0.66934919    -0.58700
O2197       O  0.79910775  0.80912325  0.68648461    -0.57100
O2198       O  0.91630949  0.80838153  0.68840663    -0.57100
O2199       O  0.85288383  0.81008561  0.71628844    -0.56300
O2200       O  0.97502653  0.83199416  0.81493933    -0.57500
C2201       C  0.96211107  0.92925451  0.81613490     0.75200
O2202       O  0.88422188  0.86461876  0.79494661    -0.58600
C2203       C  0.95911562  0.80636484  0.81421888     0.75100
C2204       C  0.89553738  0.87147165  0.84479989     0.77500
Cd2205     Cd  0.92876252  0.86893007  0.81448628     1.37500
O2206       O  0.97721766  0.90296090  0.81640544    -0.57500
O2207       O  0.92464564  0.86375029  0.84338066    -0.56300
C2208       C  0.90154720  0.86942163  0.78274325     0.77500
O2209       O  0.88090792  0.87730033  0.83182998    -0.58700
O2210       O  0.93196796  0.92712272  0.81516235    -0.57100
O2211       O  0.92900582  0.80983197  0.81369384    -0.57100
O2212       O  0.93074440  0.87493155  0.78546362    -0.56300
O2213       O  0.57630055  0.73633317  0.06533210    -0.57500
C2214       C  0.67584782  0.71945427  0.06419744     0.75200
O2215       O  0.61036593  0.64184442  0.08100042    -0.58600
C2216       C  0.55090883  0.72003169  0.06389184     0.75100
C2217       C  0.61430589  0.66313636  0.03211745     0.77500
Cd2218     Cd  0.61317209  0.68987669  0.06383754     1.37500
O2219       O  0.65036603  0.73600372  0.06493673    -0.57500
O2220       O  0.60885971  0.69234851  0.03481861    -0.56300
C2221       C  0.61109899  0.65682513  0.09415147     0.77500
O2222       O  0.61848498  0.64557857  0.04430435    -0.58700
O2223       O  0.67189763  0.68962893  0.06328755    -0.57100
O2224       O  0.55483092  0.69021254  0.06251026    -0.57100
O2225       O  0.61270024  0.68691535  0.09311509    -0.56300
O2226       O  0.72534203  0.66366933  0.93745912    -0.57500
C2227       C  0.70912563  0.56458756  0.93744420     0.75200
O2228       O  0.63278061  0.63272596  0.95560725    -0.58600
C2229       C  0.70877112  0.68909562  0.93672405     0.75100
C2230       C  0.64502560  0.62488434  0.90688023     0.77500
Cd2231     Cd  0.67863815  0.62676133  0.93701171     1.37500
O2232       O  0.72535840  0.58989886  0.93571194    -0.57500
O2233       O  0.67520673  0.62692092  0.90774885    -0.56300
C2234       C  0.64947417  0.62886753  0.96811224     0.77500
O2235       O  0.63043524  0.62344859  0.92011183    -0.58700
O2236       O  0.67923071  0.56851226  0.93871843    -0.57100
O2237       O  0.67885376  0.68520772  0.93605212    -0.57100
O2238       O  0.67897033  0.62353214  0.96604237    -0.56300
O2239       O  0.75330454  0.83974582  0.93548950    -0.57500
C2240       C  0.77072335  0.93929468  0.93743123     0.75200
O2241       O  0.84511005  0.86742119  0.95606006    -0.58600
C2242       C  0.76952935  0.81441822  0.93770889     0.75100
C2243       C  0.83049651  0.87759980  0.90634753     0.77500
Cd2244     Cd  0.79995458  0.87673564  0.93736449     1.37500
O2245       O  0.75408155  0.91416019  0.93897300    -0.57500
O2246       O  0.80049480  0.87574968  0.90798428    -0.56300
C2247       C  0.82974762  0.87494018  0.96857602     0.77500
O2248       O  0.84652020  0.87906968  0.91921149    -0.58700
O2249       O  0.80054316  0.93499360  0.93588185    -0.57100
O2250       O  0.79916057  0.81843286  0.93977480    -0.57100
O2251       O  0.80157251  0.88529826  0.96641276    -0.56300
O2252       O  0.82664399  0.76475450  0.06477124    -0.57500
C2253       C  0.92561570  0.78170211  0.06498604     0.75200
O2254       O  0.85629470  0.85770052  0.04630102    -0.58600
C2255       C  0.80100014  0.78107523  0.06527045     0.75100
C2256       C  0.86507146  0.84359707  0.09561235     0.77500
Cd2257     Cd  0.86319935  0.81176792  0.06492620     1.37500
O2258       O  0.90018209  0.76524287  0.06508026    -0.57500
O2259       O  0.86369313  0.81355611  0.09430692    -0.56300
C2260       C  0.86021258  0.84142058  0.03368576     0.77500
O2261       O  0.86563826  0.85907638  0.08258824    -0.58700
O2262       O  0.92176520  0.81166063  0.06477461    -0.57100
O2263       O  0.80467798  0.81095637  0.06581959    -0.57100
O2264       O  0.86673130  0.81216435  0.03568474    -0.56300
O2265       O  0.74592503  0.91303852  0.31264600    -0.57500
C2266       C  0.76592502  0.81507575  0.31430335     0.75200
O2267       O  0.83926528  0.89099412  0.29634483    -0.58600
C2268       C  0.76055383  0.93864405  0.31593192     0.75100
C2269       C  0.82825859  0.87493712  0.34433491     0.77500
Cd2270     Cd  0.79432177  0.87803791  0.31439772     1.37500
O2271       O  0.74932905  0.84023131  0.31623950    -0.57500
O2272       O  0.79799523  0.87507966  0.34354696    -0.56300
C2273       C  0.82391308  0.88575455  0.28357968     0.77500
O2274       O  0.84289768  0.87587281  0.33109518    -0.58700
O2275       O  0.79560824  0.81931221  0.31224448    -0.57100
O2276       O  0.79009276  0.93557370  0.31881151    -0.57100
O2277       O  0.79568175  0.87545197  0.28512381    -0.56300
O2278       O  0.89558514  0.99095765  0.18523206    -0.57500
C2279       C  0.79840419  0.97463047  0.18663340     0.75200
O2280       O  0.86230102  0.89527260  0.16980056    -0.58600
C2281       C  0.92150689  0.97588285  0.18756213     0.75100
C2282       C  0.85787902  0.91842505  0.21894950     0.77500
Cd2283     Cd  0.86054566  0.94392263  0.18704362     1.37500
O2284       O  0.82408886  0.99033996  0.18530420    -0.57500
O2285       O  0.85961492  0.94801079  0.21604883    -0.56300
C2286       C  0.86236039  0.91046868  0.15668514     0.77500
O2287       O  0.85878791  0.90006751  0.20690068    -0.58700
O2288       O  0.80169867  0.94467634  0.18787868    -0.57100
O2289       O  0.91888829  0.94607348  0.18968632    -0.57100
O2290       O  0.86187534  0.94052838  0.15786715    -0.56300
O2291       O  0.72014276  0.66496951  0.31598454    -0.57500
C2292       C  0.70434756  0.56628886  0.31625537     0.75200
O2293       O  0.62636923  0.63012125  0.33316895    -0.58600
C2294       C  0.70378907  0.69044133  0.31479609     0.75100
C2295       C  0.64708156  0.61996540  0.28400957     0.77500
Cd2296     Cd  0.67368783  0.62809120  0.31532285     1.37500
O2297       O  0.72043276  0.59190021  0.31659724    -0.57500
O2298       O  0.67681656  0.62048719  0.28674141    -0.56300
C2299       C  0.64218516  0.62636157  0.34599135     0.77500
O2300       O  0.62862832  0.62578717  0.29569323    -0.58700
O2301       O  0.67425473  0.56966014  0.31559395    -0.57100
O2302       O  0.67385283  0.68666235  0.31379173    -0.57100
O2303       O  0.67214032  0.62368774  0.34439471    -0.56300
O2304       O  0.57348309  0.51704690  0.18578799    -0.57500
C2305       C  0.67083382  0.53154652  0.18633038     0.75200
O2306       O  0.60689236  0.61174539  0.17015817    -0.58600
C2307       C  0.54788061  0.53299665  0.18745744     0.75100
C2308       C  0.61321557  0.58622024  0.21942745     0.77500
Cd2309     Cd  0.60934158  0.56321108  0.18713589     1.37500
O2310       O  0.64490766  0.51602201  0.18573442    -0.57500
O2311       O  0.61099037  0.55704987  0.21575251    -0.56300
C2312       C  0.60849130  0.59686888  0.15698036     0.77500
O2313       O  0.61230885  0.60596924  0.20793177    -0.58700
O2314       O  0.66792248  0.56163678  0.18695035    -0.57100
O2315       O  0.55091866  0.56296275  0.18865347    -0.57100
O2316       O  0.61038196  0.56676996  0.15799459    -0.56300
O2317       O  0.97046205  0.90805909  0.43609251    -0.57500
C2318       C  0.95317741  0.80890276  0.43680286     0.75200
O2319       O  0.87817657  0.87875396  0.45582088    -0.58600
C2320       C  0.95400117  0.93356378  0.43682221     0.75100
C2321       C  0.89005342  0.87095851  0.40663190     0.77500
Cd2322     Cd  0.92335402  0.87149008  0.43692413     1.37500
O2323       O  0.96963317  0.83426856  0.43610977    -0.57500
O2324       O  0.92028197  0.87112937  0.40760765    -0.56300
C2325       C  0.89497913  0.87524321  0.46831102     0.77500
O2326       O  0.87513570  0.87084506  0.41980209    -0.58700
O2327       O  0.92318245  0.81285124  0.43760830    -0.57100
O2328       O  0.92407708  0.92979395  0.43731679    -0.57100
O2329       O  0.92413319  0.86816686  0.46615125    -0.56300
O2330       O  0.82518960  0.98659176  0.56209454    -0.57500
C2331       C  0.92296204  0.97079922  0.56454313     0.75200
O2332       O  0.85656094  0.89279530  0.58219377    -0.58600
C2333       C  0.79940459  0.97140279  0.56428577     0.75100
C2334       C  0.86380266  0.90936195  0.53323290     0.77500
Cd2335     Cd  0.86114234  0.93967874  0.56432428     1.37500
O2336       O  0.89720319  0.98689047  0.56512311    -0.57500
O2337       O  0.85550057  0.93816030  0.53520130    -0.56300
C2338       C  0.85958305  0.90835909  0.59511138     0.77500
O2339       O  0.86931744  0.89363323  0.54587342    -0.58700
O2340       O  0.91972826  0.94084153  0.56419539    -0.57100
O2341       O  0.80253351  0.94166709  0.56659907    -0.57100
O2342       O  0.86351870  0.93811954  0.59359381    -0.56300
O2343       O  0.57306779  0.51568646  0.56403841    -0.57500
C2344       C  0.67197181  0.52916052  0.56513114     0.75200
O2345       O  0.60421545  0.60609986  0.54595881    -0.58600
C2346       C  0.54773538  0.53230500  0.56538091     0.75100
C2347       C  0.61136423  0.59386363  0.59557058     0.77500
Cd2348     Cd  0.61050792  0.56138365  0.56519179     1.37500
O2349       O  0.64610157  0.51405732  0.56726371    -0.57500
O2350       O  0.60636469  0.56426113  0.59416008    -0.56300
C2351       C  0.60772543  0.58853821  0.53372798     0.77500
O2352       O  0.61705920  0.60883055  0.58270398    -0.58700
O2353       O  0.66905321  0.55903964  0.56329034    -0.57100
O2354       O  0.55177171  0.56207324  0.56669424    -0.57100
O2355       O  0.61313695  0.55929873  0.53628510    -0.56300
O2356       O  0.49835516  0.58412866  0.43724364    -0.57500
C2357       C  0.51553024  0.68385532  0.43761466     0.75200
O2358       O  0.58959660  0.61633031  0.45721681    -0.58600
C2359       C  0.51500527  0.55869863  0.43742327     0.75100
C2360       C  0.57699102  0.62180636  0.40742172     0.77500
Cd2361     Cd  0.54488494  0.62114319  0.43791323     1.37500
O2362       O  0.49897435  0.65858340  0.43657685    -0.57500
O2363       O  0.54689228  0.62138746  0.40882549    -0.56300
C2364       C  0.57206941  0.62021107  0.46944637     0.77500
O2365       O  0.59268730  0.62218103  0.42040728    -0.58700
O2366       O  0.54544497  0.67971188  0.43876171    -0.57100
O2367       O  0.54494242  0.56258847  0.43796088    -0.57100
O2368       O  0.54263634  0.62503912  0.46687444    -0.56300
C2369       C  0.58034354  0.62456072  0.51466713    -0.20000
C2370       C  0.60353998  0.60083475  0.51728812    -0.06500
C2371       C  0.61974290  0.58731427  0.50403156     0.14300
C2372       C  0.61038920  0.59599641  0.48852213    -0.20000
C2373       C  0.58481292  0.61718171  0.48590032    -0.06500
C2374       C  0.57047175  0.63270675  0.49915920     0.14300
C2375       C  0.54468161  0.65771586  0.49715416    -0.23400
H2376       H  0.56839141  0.63541319  0.52484655     0.15600
H2377       H  0.62192631  0.58463630  0.47836451     0.15600
C2378       C  0.64678277  0.56365492  0.50606732    -0.23300
H2379       H  0.53824934  0.66903632  0.50873204     0.05900
H2380       H  0.52258884  0.64680425  0.49229198     0.09100
H2381       H  0.55316003  0.67680851  0.48900124     0.09100
H2382       H  0.63775388  0.54100172  0.51119190     0.09100
H2383       H  0.66540768  0.57385597  0.51401710     0.09100
H2384       H  0.65827953  0.55772772  0.49446335     0.05800
C2385       C  0.95772674  0.51759336  0.57017688    -0.20000
C2386       C  0.95504342  0.98621081  0.56444100    -0.06500
C2387       C  0.98291924  0.97052199  0.55867647     0.14300
C2388       C  0.51249577  0.98628830  0.55924422    -0.20000
C2389       C  0.51531314  0.51751769  0.56517396    -0.06500
C2390       C  0.98729809  0.53349940  0.57060951     0.14300
C2391       C  0.98810274  0.56705269  0.57715105    -0.23400
H2392       H  0.93645972  0.52977637  0.57452866     0.15600
H2393       H  0.53368646  0.97407542  0.55482736     0.15600
C2394       C  0.98187463  0.93751541  0.55146363    -0.23300
H2395       H  0.96416121  0.57510168  0.58134951     0.05900
H2396       H  0.99582594  0.58391157  0.56768860     0.09100
H2397       H  0.00474589  0.56824211  0.58748060     0.09100
H2398       H  0.96455232  0.93707940  0.54139380     0.09100
H2399       H  0.97490966  0.91979109  0.56066580     0.09100
H2400       H  0.50555911  0.92999999  0.54669699     0.05800
C2401       C  0.74024149  0.96772871  0.56723255    -0.20000
C2402       C  0.76712421  0.98695008  0.56420517    -0.06500
C2403       C  0.76222284  0.51993849  0.56116883     0.14300
C2404       C  0.73098734  0.53255054  0.56150987    -0.20000
C2405       C  0.70414357  0.51340867  0.56474343    -0.06500
C2406       C  0.70898779  0.98032099  0.56749505     0.14300
C2407       C  0.68166562  0.95782842  0.57075408    -0.23400
H2408       H  0.74361357  0.94248299  0.56945952     0.15600
H2409       H  0.72760720  0.55778266  0.55922999     0.15600
C2410       C  0.78945684  0.54231245  0.55752481    -0.23300
H2411       H  0.69008474  0.93290377  0.57260862     0.05900
H2412       H  0.66497460  0.95765984  0.56042578     0.09100
H2413       H  0.66880468  0.96529809  0.58175129     0.09100
H2414       H  0.80220030  0.53426588  0.54659168     0.09100
H2415       H  0.80627096  0.54310307  0.56779105     0.09100
H2416       H  0.78095683  0.56710640  0.55534711     0.05800
C2417       C  0.50196259  0.96830170  0.43408992    -0.20000
C2418       C  0.96895934  0.96591925  0.43703050    -0.06500
C2419       C  0.95132241  0.99438259  0.44010910     0.14300
C2420       C  0.96714459  0.52393529  0.44008796    -0.20000
C2421       C  0.50013197  0.52631566  0.43716271    -0.06500
C2422       C  0.51776610  0.49788296  0.43405945     0.14300
C2423       C  0.55311725  0.49817261  0.43039094    -0.23400
H2424       H  0.51563643  0.94674247  0.43167721     0.15600
H2425       H  0.95348570  0.54550560  0.44250988     0.15600
C2426       C  0.91589605  0.49424136  0.44363628    -0.23300
H2427       H  0.56246133  0.97390085  0.42765367     0.05900
H2428       H  0.56665627  0.50721282  0.44085547     0.09100
H2429       H  0.55772874  0.51341817  0.41978896     0.09100
H2430       H  0.91105766  0.97933415  0.45433301     0.09100
H2431       H  0.90252526  0.98493264  0.43317321     0.09100
H2432       H  0.90651870  0.51859783  0.44614527     0.05800
C2433       C  0.96719717  0.71840058  0.43500808    -0.20000
C2434       C  0.50042812  0.71629249  0.43740977    -0.06500
C2435       C  0.51794473  0.74500867  0.43950328     0.14300
C2436       C  0.50173564  0.77450872  0.43913339    -0.20000
C2437       C  0.96846602  0.77656788  0.43684360    -0.06500
C2438       C  0.95099368  0.74787814  0.43468819     0.14300
C2439       C  0.91534428  0.74771967  0.43181688    -0.23400
H2440       H  0.95357103  0.69666825  0.43332892     0.15600
H2441       H  0.51531210  0.79627792  0.44080411     0.15600
C2442       C  0.55363614  0.74521331  0.44226126    -0.23300
H2443       H  0.90610371  0.72319347  0.42984713     0.05900
H2444       H  0.90953897  0.76198609  0.42100542     0.09100
H2445       H  0.90265523  0.75763188  0.44237006     0.09100
H2446       H  0.56615144  0.73455838  0.43183383     0.09100
H2447       H  0.55952509  0.73165272  0.45328603     0.09100
H2448       H  0.56299111  0.76981541  0.44381377     0.05800
C2449       C  0.89642764  0.86340581  0.49735332    -0.20000
C2450       C  0.88217524  0.88025773  0.48467681    -0.06500
C2451       C  0.85888119  0.90390010  0.48814975     0.14300
C2452       C  0.85215893  0.91144154  0.50416211    -0.20000
C2453       C  0.86785959  0.89595290  0.51687510    -0.06500
C2454       C  0.88944314  0.87069673  0.51338082     0.14300
C2455       C  0.90646110  0.85225492  0.52633823    -0.23400
H2456       H  0.91396850  0.84503180  0.49469488     0.15600
H2457       H  0.83526299  0.93044280  0.50675743     0.15600
C2458       C  0.84229411  0.92263111  0.47514678    -0.23300
H2459       H  0.92270317  0.83369952  0.52134657     0.05900
H2460       H  0.88866914  0.83996733  0.53400403     0.09100
H2461       H  0.92117115  0.86868329  0.53368839     0.09100
H2462       H  0.82816201  0.90624724  0.46749894     0.09100
H2463       H  0.86025720  0.93537160  0.46776533     0.09100
H2464       H  0.82552165  0.94075489  0.48009765     0.05800
C2465       C  0.59327428  0.61898604  0.36240756    -0.20000
C2466       C  0.62632196  0.62481574  0.36191013    -0.06500
C2467       C  0.64309239  0.62890833  0.37651955     0.14300
C2468       C  0.62624001  0.62765910  0.39102822    -0.20000
C2469       C  0.59309898  0.62219559  0.39152630    -0.06500
C2470       C  0.57647366  0.61736868  0.37691776     0.14300
C2471       C  0.54116281  0.61004213  0.37629660    -0.23400
H2472       H  0.58042035  0.61538884  0.35132005     0.15600
H2473       H  0.63916041  0.63120172  0.40209888     0.15600
C2474       C  0.67860851  0.63517616  0.37710834    -0.23300
H2475       H  0.53274297  0.60579949  0.36388885     0.05900
H2476       H  0.52717082  0.63048585  0.38109982     0.09100
H2477       H  0.53610636  0.58810770  0.38329897     0.09100
H2478       H  0.68429857  0.65700901  0.37015679     0.09100
H2479       H  0.69192773  0.61438008  0.37220300     0.09100
H2480       H  0.68722869  0.63895584  0.38951999     0.05800
C2481       C  0.63498460  0.57344225  0.24598469    -0.20000
C2482       C  0.61873282  0.59558005  0.23629018    -0.06500
C2483       C  0.60910109  0.62524850  0.24291675     0.14300
C2484       C  0.61734760  0.63244185  0.25886484    -0.20000
C2485       C  0.63521497  0.61079323  0.26810182    -0.06500
C2486       C  0.64344884  0.58069040  0.26171611     0.14300
C2487       C  0.66097154  0.55590094  0.27153592    -0.23400
H2488       H  0.64203807  0.55052967  0.24108503     0.15600
H2489       H  0.61075976  0.65530540  0.26395697     0.15600
C2490       C  0.58979814  0.64905612  0.23342186    -0.23300
H2491       H  0.66426451  0.53318958  0.26486654     0.05900
H2492       H  0.64712602  0.55057838  0.28253701     0.09100
H2493       H  0.68506620  0.56469753  0.27488747     0.09100
H2494       H  0.56747742  0.63768056  0.22905297     0.09100
H2495       H  0.60397409  0.65779135  0.22311711     0.09100
H2496       H  0.58296185  0.67011503  0.24075575     0.05800
C2497       C  0.73913491  0.97014081  0.18500035    -0.20000
C2498       C  0.76608476  0.98990824  0.18665554    -0.06500
C2499       C  0.76128355  0.52323427  0.18848395     0.14300
C2500       C  0.73001270  0.53567680  0.18830554    -0.20000
C2501       C  0.70305487  0.51599871  0.18643733    -0.06500
C2502       C  0.70781948  0.98258610  0.18487413     0.14300
C2503       C  0.68037029  0.95961218  0.18299527    -0.23400
H2504       H  0.74253220  0.94466048  0.18369368     0.15600
H2505       H  0.72669432  0.56115753  0.18969317     0.15600
C2506       C  0.78867039  0.54608397  0.19090734    -0.23300
H2507       H  0.68877562  0.93452363  0.18180932     0.05900
H2508       H  0.66649862  0.96553773  0.17206241     0.09100
H2509       H  0.66460574  0.96078547  0.19365957     0.09100
H2510       H  0.80441367  0.54603289  0.18022822     0.09100
H2511       H  0.80258504  0.53912306  0.20167815     0.09100
H2512       H  0.78019768  0.57100510  0.19270434     0.05800
C2513       C  0.97992994  0.97356008  0.19293602    -0.20000
C2514       C  0.95338891  0.99166228  0.18781262    -0.06500
C2515       C  0.95828885  0.52368025  0.18286398     0.14300
C2516       C  0.98936779  0.53625968  0.18302265    -0.20000
C2517       C  0.51587170  0.51788314  0.18779964    -0.06500
C2518       C  0.51100714  0.98611701  0.19298460     0.14300
C2519       C  0.53813727  0.96542121  0.19895903    -0.23400
H2520       H  0.97642222  0.94916898  0.19693689     0.15600
H2521       H  0.99306925  0.56068920  0.17910285     0.15600
C2522       C  0.93130992  0.54480266  0.17711638    -0.23300
H2523       H  0.52953603  0.94195214  0.20336589     0.05900
H2524       H  0.55053427  0.97749294  0.20901108     0.09100
H2525       H  0.55533807  0.96063070  0.18913890     0.09100
H2526       H  0.91361226  0.54839779  0.18684698     0.09100
H2527       H  0.91956848  0.53380393  0.16657477     0.09100
H2528       H  0.93990965  0.56877802  0.17344671     0.05800
C2529       C  0.82722719  0.86451195  0.37352421    -0.20000
C2530       C  0.84504829  0.87356258  0.36001865    -0.06500
C2531       C  0.87777277  0.88142459  0.36198359     0.14300
C2532       C  0.89147438  0.88022620  0.37731300    -0.20000
C2533       C  0.87358226  0.87139095  0.39083913    -0.06500
C2534       C  0.84096745  0.86316762  0.38883360     0.14300
C2535       C  0.82040603  0.85225333  0.40257760    -0.23400
H2536       H  0.80234485  0.85822258  0.37211459     0.15600
H2537       H  0.91635021  0.88655000  0.37873318     0.15600
C2538       C  0.89851541  0.89170254  0.34817792    -0.23300
H2539       H  0.79602934  0.84538495  0.39859420     0.05900
H2540       H  0.81762168  0.87183005  0.41141405     0.09100
H2541       H  0.83147557  0.83103521  0.40836099     0.09100
H2542       H  0.88801702  0.91318631  0.34238066     0.09100
H2543       H  0.90065115  0.87199372  0.33936607     0.09100
H2544       H  0.92312094  0.89788091  0.35209607     0.05800
C2545       C  0.76391028  0.99715148  0.32052896    -0.20000
C2546       C  0.74491395  0.97078258  0.31628553    -0.06500
C2547       C  0.71237920  0.97619008  0.31223920     0.14300
C2548       C  0.70016016  0.50754424  0.31237199    -0.20000
C2549       C  0.71931561  0.53390112  0.31644441    -0.06500
C2550       C  0.75170075  0.52844423  0.32068401     0.14300
C2551       C  0.77370507  0.55514708  0.32562244    -0.23400
H2552       H  0.78874240  0.99337234  0.32372795     0.15600
H2553       H  0.67536973  0.51146801  0.30911862     0.15600
C2554       C  0.69019257  0.94939174  0.30767482    -0.23300
H2555       H  0.79778082  0.54617144  0.32909490     0.05900
H2556       H  0.76351718  0.56793458  0.33608895     0.09100
H2557       H  0.77705392  0.57199010  0.31552689     0.09100
H2558       H  0.68826596  0.93213708  0.31769812     0.09100
H2559       H  0.69930316  0.93712393  0.29682001     0.09100
H2560       H  0.66566151  0.95819061  0.30496220     0.05800
C2561       C  0.71743701  0.78094837  0.31371059    -0.20000
C2562       C  0.75097666  0.78272415  0.31436855    -0.06500
C2563       C  0.76885124  0.75384487  0.31518085     0.14300
C2564       C  0.75266363  0.72444440  0.31534980    -0.20000
C2565       C  0.71907324  0.72268067  0.31460718    -0.06500
C2566       C  0.70126251  0.75160994  0.31373360     0.14300
C2567       C  0.66520205  0.75226781  0.31278892    -0.23400
H2568       H  0.70355744  0.80284667  0.31304396     0.15600
H2569       H  0.76654355  0.70255060  0.31602871     0.15600
C2570       C  0.80491662  0.75343237  0.31604995    -0.23300
H2571       H  0.65559873  0.77702315  0.31219695     0.05900
H2572       H  0.65483573  0.74085738  0.32357115     0.09100
H2573       H  0.65710703  0.73967858  0.30184366     0.09100
H2574       H  0.81305411  0.76692233  0.32671564     0.09100
H2575       H  0.81511455  0.76411211  0.30504264     0.09100
H2576       H  0.81461379  0.72876353  0.31704517     0.05800
C2577       C  0.86139163  0.92786663  0.24815944    -0.20000
C2578       C  0.85376464  0.90682632  0.23561752    -0.06500
C2579       C  0.83946917  0.87710173  0.23933672     0.14300
C2580       C  0.83124187  0.87035493  0.25525827    -0.20000
C2581       C  0.83746035  0.89212479  0.26759592    -0.06500
C2582       C  0.85346815  0.92091522  0.26407406     0.14300
C2583       C  0.86048393  0.94532022  0.27684636    -0.23400
H2584       H  0.87265094  0.95045366  0.24545007     0.15600
H2585       H  0.81913326  0.84824394  0.25806735     0.15600
C2586       C  0.83147689  0.85285587  0.22665577    -0.23300
H2587       H  0.87196776  0.96700054  0.27184496     0.05900
H2588       H  0.87705420  0.93498866  0.28585568     0.09100
H2589       H  0.83787489  0.95281865  0.28276807     0.09100
H2590       H  0.85369516  0.84510296  0.22046643     0.09100
H2591       H  0.81443025  0.86332487  0.21790387     0.09100
H2592       H  0.82015131  0.83122667  0.23179959     0.05800
C2593       C  0.85632398  0.89237784  0.11192166    -0.20000
C2594       C  0.86522981  0.86003850  0.11141686    -0.06500
C2595       C  0.87368507  0.84452478  0.12590607     0.14300
C2596       C  0.87237035  0.86162995  0.14036615    -0.20000
C2597       C  0.86320790  0.89394962  0.14087866    -0.06500
C2598       C  0.85512368  0.90951897  0.12633546     0.14300
C2599       C  0.84449394  0.94398216  0.12574219    -0.23400
H2600       H  0.84978457  0.90439208  0.10089368     0.15600
H2601       H  0.87886719  0.84962032  0.15139407     0.15600
C2602       C  0.88489822  0.81024676  0.12632522    -0.23300
H2603       H  0.83783636  0.95153098  0.11345027     0.05900
H2604       H  0.86423451  0.95973065  0.12973899     0.09100
H2605       H  0.82314903  0.94750003  0.13345772     0.09100
H2606       H  0.90596684  0.80716400  0.11837292     0.09100
H2607       H  0.86530506  0.79418674  0.12247273     0.09100
H2608       H  0.89216519  0.80276605  0.13854128     0.05800
C2609       C  0.82829478  0.88736371  0.99765320    -0.20000
C2610       C  0.84274882  0.87045276  0.98501796    -0.06500
C2611       C  0.86629957  0.84709548  0.98867148     0.14300
C2612       C  0.87271950  0.83963521  0.00472977    -0.20000
C2613       C  0.85653220  0.85488829  0.01732868    -0.06500
C2614       C  0.83491644  0.88002272  0.01372835     0.14300
C2615       C  0.81733891  0.89806112  0.02663933    -0.23400
H2616       H  0.81068064  0.90564513  0.99494327     0.15600
H2617       H  0.88974157  0.82081245  0.00746245     0.15600
C2618       C  0.88365054  0.82858179  0.97584883    -0.23300
H2619       H  0.80089429  0.91639329  0.02160347     0.05900
H2620       H  0.83476110  0.91054224  0.03444388     0.09100
H2621       H  0.80278791  0.88129984  0.03387613     0.09100
H2622       H  0.89733036  0.84522793  0.96814039     0.09100
H2623       H  0.86623391  0.81497681  0.96852466     0.09100
H2624       H  0.90096981  0.81116220  0.98096517     0.05800
C2625       C  0.75609731  0.72400270  0.94104815    -0.20000
C2626       C  0.72365134  0.72148264  0.93685884    -0.06500
C2627       C  0.70642603  0.74984770  0.93311095     0.14300
C2628       C  0.72218887  0.77943625  0.93349938    -0.20000
C2629       C  0.75463326  0.78199211  0.93769935    -0.06500
C2630       C  0.77174976  0.75364449  0.94167430     0.14300
C2631       C  0.80636315  0.75401641  0.94683583    -0.23400
H2632       H  0.76937943  0.70252052  0.94407480     0.15600
H2633       H  0.70887368  0.80088380  0.93046807     0.15600
C2634       C  0.67149011  0.74954261  0.92854025    -0.23300
H2635       H  0.81531348  0.72975020  0.94989574     0.05900
H2636       H  0.80911193  0.76914851  0.95764465     0.09100
H2637       H  0.82159740  0.76320113  0.93701173     0.09100
H2638       H  0.65693085  0.74057112  0.93867076     0.09100
H2639       H  0.66791822  0.73424793  0.91785545     0.09100
H2640       H  0.66241936  0.77380334  0.92556653     0.05800
C2641       C  0.72332989  0.97446777  0.94153164    -0.20000
C2642       C  0.75588771  0.97181201  0.93755326    -0.06500
C2643       C  0.77308137  0.50009460  0.93390303     0.14300
C2644       C  0.75705633  0.52968808  0.93402369    -0.20000
C2645       C  0.72438987  0.53227584  0.93781338    -0.06500
C2646       C  0.70742511  0.00408647  0.94186582     0.14300
C2647       C  0.67271179  0.00462134  0.94683900    -0.23400
H2648       H  0.71007382  0.95308392  0.94454257     0.15600
H2649       H  0.77030593  0.55110357  0.93104185     0.15600
C2650       C  0.80822503  0.49971411  0.92975407    -0.23300
H2651       H  0.66396769  0.98048747  0.95013447     0.05900
H2652       H  0.65756508  0.51330238  0.93683633     0.09100
H2653       H  0.66960580  0.52024983  0.95745921     0.09100
H2654       H  0.81235520  0.98473696  0.91900329     0.09100
H2655       H  0.82232552  0.99034021  0.93999610     0.09100
H2656       H  0.81734976  0.52400819  0.92706772     0.05800
C2657       C  0.60265881  0.65920521  0.12354841    -0.20000
C2658       C  0.60998960  0.64064363  0.11001087    -0.06500
C2659       C  0.61667684  0.60771196  0.11210118     0.14300
C2660       C  0.61570813  0.59451197  0.12751822    -0.20000
C2661       C  0.60857772  0.61307739  0.14108885    -0.06500
C2662       C  0.60190793  0.64604402  0.13899595     0.14300
C2663       C  0.59377633  0.66769283  0.15282543    -0.23400
H2664       H  0.59741021  0.68445393  0.12205504     0.15600
H2665       H  0.62100512  0.56926240  0.12896249     0.15600
C2666       C  0.62569675  0.58627560  0.09831980    -0.23300
H2667       H  0.58857162  0.69248655  0.14883789     0.05900
H2668       H  0.61428150  0.66882705  0.16124257     0.09100
H2669       H  0.57218850  0.65872549  0.15908906     0.09100
H2670       H  0.64726747  0.59575488  0.09222768     0.09100
H2671       H  0.60550285  0.58469253  0.08974176     0.09100
H2672       H  0.63135107  0.56159405  0.10233094     0.05800
C2673       C  0.71017057  0.76784001  0.06505211    -0.20000
C2674       C  0.70829811  0.73438823  0.06442825    -0.06500
C2675       C  0.73726863  0.71645064  0.06413888     0.14300
C2676       C  0.76678026  0.73247678  0.06447741    -0.20000
C2677       C  0.76863199  0.76594887  0.06511015    -0.06500
C2678       C  0.73964590  0.78385835  0.06541629     0.14300
C2679       C  0.73907615  0.81986456  0.06613317    -0.23400
H2680       H  0.68822015  0.78179881  0.06527048     0.15600
H2681       H  0.78874586  0.71854118  0.06423347     0.15600
C2682       C  0.73774187  0.68044198  0.06351744    -0.23300
H2683       H  0.71427485  0.82954812  0.06632358     0.05900
H2684       H  0.75111987  0.82991467  0.05544580     0.09100
H2685       H  0.75113283  0.82816265  0.07719537     0.09100
H2686       H  0.72581084  0.67205160  0.05243965     0.09100
H2687       H  0.72548855  0.67055903  0.07418478     0.09100
H2688       H  0.76252451  0.67070162  0.06344799     0.05800
C2689       C  0.96055303  0.73443725  0.06024200    -0.20000
C2690       C  0.95798411  0.76656359  0.06488040    -0.06500
C2691       C  0.98623426  0.78320727  0.06917996     0.14300
C2692       C  0.51588243  0.76726030  0.06870679    -0.20000
C2693       C  0.51849434  0.73514889  0.06401114    -0.06500
C2694       C  0.99023182  0.71856660  0.05961133     0.14300
C2695       C  0.99080834  0.68438358  0.05390980    -0.23400
H2696       H  0.93906773  0.72161753  0.05683599     0.15600
H2697       H  0.53732384  0.78012438  0.07212931     0.15600
C2698       C  0.98561378  0.81757936  0.07457619    -0.23300
H2699       H  0.96662787  0.67594553  0.05040304     0.05900
H2700       H  0.99947133  0.66845460  0.06360298     0.09100
H2701       H  0.00653671  0.68216504  0.04326727     0.09100
H2702       H  0.96957309  0.82024430  0.08507385     0.09100
H2703       H  0.97726149  0.83317072  0.06467996     0.09100
H2704       H  0.50973267  0.82606346  0.07815757     0.05800
C2705       C  0.61254307  0.65629484  0.98673443    -0.20000
C2706       C  0.63588468  0.63262451  0.98432839    -0.06500
C2707       C  0.64787688  0.61551580  0.99764856     0.14300
C2708       C  0.63834930  0.62455025  0.01308635    -0.20000
C2709       C  0.61781464  0.65070842  0.01559280    -0.06500
C2710       C  0.60360083  0.66589632  0.00217942     0.14300
C2711       C  0.57933655  0.69245326  0.00392988    -0.23400
H2712       H  0.60277953  0.66889429  0.97647172     0.15600
H2713       H  0.64864455  0.61227946  0.02331462     0.15600
C2714       C  0.67081642  0.58785509  0.99573304    -0.23300
H2715       H  0.56895259  0.69950358  0.99221567     0.05900
H2716       H  0.59076031  0.71399381  0.00906649     0.09100
H2717       H  0.55939821  0.68453349  0.01173062     0.09100
H2718       H  0.69412713  0.59629321  0.99106308     0.09100
H2719       H  0.66052185  0.56994228  0.98742769     0.09100
H2720       H  0.67560189  0.57575866  0.00731153     0.05800
C2721       C  0.87946546  0.87171787  0.88985667    -0.20000
C2722       C  0.84634299  0.87730373  0.89037700    -0.06500
C2723       C  0.82965112  0.88207663  0.87577731     0.14300
C2724       C  0.84643051  0.88013932  0.86122650    -0.20000
C2725       C  0.87947690  0.87365972  0.86070814    -0.06500
C2726       C  0.89625691  0.86987040  0.87536534     0.14300
C2727       C  0.93189855  0.86402313  0.87611235    -0.23400
H2728       H  0.89244456  0.86833634  0.90094096     0.15600
H2729       H  0.83347846  0.88357118  0.85014105     0.15600
C2730       C  0.79433797  0.88969352  0.87526151    -0.23300
H2731       H  0.94074993  0.86244936  0.88860652     0.05900
H2732       H  0.94477201  0.88401308  0.87027235     0.09100
H2733       H  0.93793367  0.84106773  0.87017808     0.09100
H2734       H  0.78932999  0.91155398  0.88236541     0.09100
H2735       H  0.78041296  0.86932337  0.88004959     0.09100
H2736       H  0.78583106  0.89413669  0.86287673     0.05800
C2737       C  0.86178548  0.85893746  0.61152781    -0.20000
C2738       C  0.85882871  0.89233749  0.61102982    -0.06500
C2739       C  0.85506186  0.90921936  0.62562876     0.14300
C2740       C  0.85471903  0.89227671  0.64012444    -0.20000
C2741       C  0.85811928  0.85890056  0.64064161    -0.06500
C2742       C  0.86153645  0.84198943  0.62601234     0.14300
C2743       C  0.86466230  0.80609801  0.62531938    -0.23400
H2744       H  0.86458816  0.84583445  0.60043005     0.15600
H2745       H  0.85193529  0.90540504  0.65121359     0.15600
C2746       C  0.85088461  0.94499960  0.62621111    -0.23300
H2747       H  0.86621184  0.79718937  0.61283745     0.05900
H2748       H  0.84340455  0.79485066  0.63090262     0.09100
H2749       H  0.88682301  0.79832767  0.63155470     0.09100
H2750       H  0.82970881  0.95218671  0.61901425     0.09100
H2751       H  0.87269562  0.95686611  0.62158180     0.09100
H2752       H  0.84700856  0.95376578  0.63859357     0.05800
C2753       C  0.86071050  0.84888356  0.76384813    -0.20000
C2754       C  0.88877731  0.86664710  0.76619507    -0.06500
C2755       C  0.90505288  0.87887721  0.75263256     0.14300
C2756       C  0.89400849  0.87114649  0.73725831    -0.20000
C2757       C  0.86781300  0.85080279  0.73498783    -0.06500
C2758       C  0.85029955  0.84036209  0.74847395     0.14300
C2759       C  0.82073754  0.82009607  0.74682882    -0.23400
H2760       H  0.84775222  0.83998201  0.77414206     0.15600
H2761       H  0.90721058  0.87947270  0.72691513     0.15600
C2762       C  0.93430405  0.89967977  0.75408812    -0.23300
H2763       H  0.80882404  0.81622907  0.75853293     0.05900
H2764       H  0.82709545  0.79624675  0.74198574     0.09100
H2765       H  0.80329104  0.83206085  0.73877589     0.09100
H2766       H  0.95453953  0.88580140  0.75920195     0.09100
H2767       H  0.92888399  0.92063391  0.76177032     0.09100
H2768       H  0.94228529  0.90877803  0.74227846     0.05800
C2769       C  0.62584089  0.63985686  0.61294143    -0.20000
C2770       C  0.61067590  0.61011400  0.61138758    -0.06500
C2771       C  0.59500954  0.59687556  0.62489552     0.14300
C2772       C  0.59546892  0.61342295  0.63947053    -0.20000
C2773       C  0.61063998  0.64303341  0.64099440    -0.06500
C2774       C  0.62607187  0.65647328  0.62753664     0.14300
C2775       C  0.64377311  0.68771893  0.62854591    -0.23400
H2776       H  0.63790898  0.65007592  0.60270348     0.15600
H2777       H  0.58345468  0.60331214  0.64975999     0.15600
C2778       C  0.57696731  0.56577937  0.62413354    -0.23300
H2779       H  0.65598489  0.69359906  0.61713853     0.05900
H2780       H  0.66228907  0.68635206  0.63805438     0.09100
H2781       H  0.62678793  0.70745979  0.63119937     0.09100
H2782       H  0.59373115  0.54578754  0.62159630     0.09100
H2783       H  0.55825569  0.56712334  0.61472093     0.09100
H2784       H  0.56482780  0.56024587  0.63560577     0.05800
C2785       C  0.98723823  0.71712341  0.68981275    -0.20000
C2786       C  0.51425105  0.73663883  0.68761732    -0.06500
C2787       C  0.50950377  0.76981758  0.68514408     0.14300
C2788       C  0.97823932  0.78230987  0.68502794    -0.20000
C2789       C  0.95126228  0.76281109  0.68720694    -0.06500
C2790       C  0.95594083  0.72962707  0.68961274     0.14300
C2791       C  0.92837665  0.70708700  0.69222282    -0.23400
H2792       H  0.99055898  0.69178459  0.69173997     0.15600
H2793       H  0.97490238  0.80764787  0.68309666     0.15600
C2794       C  0.53693220  0.79243438  0.68235459    -0.23300
H2795       H  0.93668716  0.68223436  0.69439620     0.05900
H2796       H  0.91281506  0.70667445  0.68146930     0.09100
H2797       H  0.91429001  0.71473827  0.70281380     0.09100
H2798       H  0.55074074  0.78482567  0.67166601     0.09100
H2799       H  0.55275779  0.79292440  0.69300839     0.09100
H2800       H  0.52851625  0.81726670  0.68021356     0.05800
C2801       C  0.73718544  0.78285987  0.68601491    -0.20000
C2802       C  0.76460268  0.76322812  0.68600923    -0.06500
C2803       C  0.76051796  0.72961428  0.68586103     0.14300
C2804       C  0.72943534  0.71689196  0.68594116    -0.20000
C2805       C  0.70202373  0.73654916  0.68624544    -0.06500
C2806       C  0.70612508  0.77015062  0.68618396     0.14300
C2807       C  0.67820471  0.79311996  0.68633483    -0.23400
H2808       H  0.73997761  0.80852562  0.68602766     0.15600
H2809       H  0.72662195  0.69123088  0.68590458     0.15600
C2810       C  0.78846785  0.70667733  0.68568863    -0.23300
H2811       H  0.68610539  0.81840057  0.68606193     0.05900
H2812       H  0.66397805  0.78982380  0.69741092     0.09100
H2813       H  0.66293193  0.78915677  0.67566175     0.09100
H2814       H  0.80321353  0.70997611  0.69660063     0.09100
H2815       H  0.80323573  0.71068920  0.67485059     0.09100
H2816       H  0.78057808  0.68138916  0.68548591     0.05800
C2817       C  0.58097947  0.62049928  0.87416704    -0.20000
C2818       C  0.59984306  0.62203458  0.86027026    -0.06500
C2819       C  0.63339709  0.62551588  0.86187734     0.14300
C2820       C  0.64704764  0.62641055  0.87721034    -0.20000
C2821       C  0.62828908  0.62422723  0.89113126    -0.06500
C2822       C  0.59459486  0.62161437  0.88951759     0.14300
C2823       C  0.57249639  0.61998696  0.90374293    -0.23400
H2824       H  0.55534257  0.61816127  0.87304503     0.15600
H2825       H  0.67268359  0.62886596  0.87827388     0.15600
C2826       C  0.65518165  0.62904278  0.84762486    -0.23300
H2827       H  0.54699270  0.61824465  0.90011314     0.05900
H2828       H  0.57497656  0.64192349  0.91108907     0.09100
H2829       H  0.57819439  0.59855384  0.91103453     0.09100
H2830       H  0.64746826  0.64984096  0.84031544     0.09100
H2831       H  0.65470711  0.60696705  0.84029447     0.09100
H2832       H  0.68042439  0.63309347  0.85122933     0.05800
C2833       C  0.95446534  0.74691964  0.81421081    -0.20000
C2834       C  0.97440102  0.77397283  0.81402498    -0.06500
C2835       C  0.50803394  0.76920948  0.81368312     0.14300
C2836       C  0.52047362  0.73799069  0.81342393    -0.20000
C2837       C  0.50061649  0.71093505  0.81371772    -0.06500
C2838       C  0.96698554  0.71562092  0.81416890     0.14300
C2839       C  0.94390336  0.68806984  0.81470984    -0.23400
H2840       H  0.92878684  0.75019774  0.81451871     0.15600
H2841       H  0.54615343  0.73480828  0.81311509     0.15600
C2842       C  0.53137883  0.79659177  0.81363396    -0.23300
H2843       H  0.91860469  0.69631503  0.81502606     0.05900
H2844       H  0.94818567  0.67362600  0.82563687     0.09100
H2845       H  0.94689970  0.67294968  0.80391190     0.09100
H2846       H  0.52843796  0.81100134  0.82467897     0.09100
H2847       H  0.52739892  0.81175326  0.80292768     0.09100
H2848       H  0.55662757  0.78820172  0.81328420     0.05800
C2849       C  0.52442492  0.99633635  0.81723577    -0.20000
C2850       C  0.50466953  0.52364086  0.81634465    -0.06500
C2851       C  0.97100434  0.51940556  0.81600013     0.14300
C2852       C  0.95836134  0.48841259  0.81617479    -0.20000
C2853       C  0.97804721  0.96109982  0.81670060    -0.06500
C2854       C  0.51169074  0.96525112  0.81747216     0.14300
C2855       C  0.53456029  0.93736039  0.81851378    -0.23400
H2856       H  0.55011188  0.99924987  0.81768230     0.15600
H2857       H  0.93266144  0.48560598  0.81574875     0.15600
C2858       C  0.94782909  0.54710834  0.81528932    -0.23300
H2859       H  0.55987210  0.94523281  0.81921478     0.05900
H2860       H  0.53220896  0.92210581  0.80773094     0.09100
H2861       H  0.52946325  0.92316041  0.82942033     0.09100
H2862       H  0.95198060  0.56123922  0.80426418     0.09100
H2863       H  0.95075894  0.56243236  0.82601312     0.09100
H2864       H  0.92253064  0.53908561  0.81504798     0.05800
C2865       C  0.57839828  0.61065408  0.75397856    -0.20000
C2866       C  0.59255567  0.62729140  0.76671302    -0.06500
C2867       C  0.61543254  0.65120501  0.76327533     0.14300
C2868       C  0.62154285  0.65934230  0.74728155    -0.20000
C2869       C  0.60546489  0.64439338  0.73458314    -0.06500
C2870       C  0.58447498  0.61881271  0.73799073     0.12700
C2871       C  0.56683328  0.60116647  0.72501003    -0.23400
H2872       H  0.56126511  0.59197051  0.75657101     0.15600
H2873       H  0.63807143  0.67856763  0.74470008     0.15600
C2874       C  0.63214107  0.66966486  0.77628189    -0.23300
H2875       H  0.55098516  0.58236389  0.72994895     0.05900
H2876       H  0.58422780  0.58930076  0.71690462     0.09100
H2877       H  0.55159286  0.61806234  0.71813005     0.09100
H2878       H  0.64646781  0.65310868  0.78381418     0.09100
H2879       H  0.61424168  0.68241445  0.78376325     0.09100
H2880       H  0.64875032  0.68779754  0.77133456     0.05800
loop_ 
_geom_bond_atom_site_label_1 
_geom_bond_atom_site_label_2 
_geom_bond_distance 
_geom_bond_site_symmetry_2 
_ccdc_geom_bond_type 
O1            C4   1.266       .  A
O1           Cd6   2.460       .  S
C2           O11   1.264       .  A
C2            O7   1.267       .  A
C2          C677   1.496       .  S
O3            C9   1.266       .  A
O3           Cd6   2.470       .  S
C4           O12   1.267       .  A
C4          C690   1.495       .  S
C5           O10   1.266       .  A
C5            O8   1.265       .  A
C5          C706   1.487       .  S
Cd6          O13   2.455       .  S
Cd6          O12   2.479       .  S
Cd6          O11   2.445       .  S
Cd6           O7   2.501       .  S
Cd6          O10   2.483       .  S
Cd6           O8   2.451       .  S
C9           O13   1.265       .  A
C9          C658   1.489       .  S
O14          C17   1.267       .  A
O14         Cd19   2.461       .  S
C15          O24   1.264       .  A
C15          O20   1.266       .  A
C15         C626   1.493       .  S
O16          C22   1.268       .  A
O16         Cd19   2.463       .  S
C17          O25   1.266       .  A
C17         C645   1.493       .  S
C18          O23   1.266       .  A
C18          O21   1.265       .  A
C18         C709   1.487       .  S
Cd19         O26   2.452       .  S
Cd19         O25   2.457       .  S
Cd19         O24   2.463       .  S
Cd19         O20   2.480       .  S
Cd19         O23   2.478       .  S
Cd19         O21   2.451       .  S
C22          O26   1.264       .  A
C22         C613   1.481       .  S
O27          C30   1.267       .  A
O27         Cd32   2.477       .  S
C28          O37   1.267       .  A
C28          O33   1.266       .  A
C28         C642   1.493       .  S
O29          C35   1.268       .  A
O29         Cd32   2.485       .  S
C30          O38   1.265       .  A
C30         C629   1.490       .  S
C31          O36   1.269       .  A
C31          O34   1.262       .  A
C31         C581   1.493       .  S
Cd32         O39   2.448       .  S
Cd32         O38   2.445       .  S
Cd32         O37   2.456       .  S
Cd32         O33   2.465       .  S
Cd32         O36   2.486       .  S
Cd32         O34   2.440       .  S
C35          O39   1.263       .  A
C35         C597   1.483       .  S
O40          C43   1.266       .  A
O40         Cd45   2.470       .  S
C41          O50   1.265       .  A
C41          O46   1.267       .  A
C41         C693   1.494       .  S
O42          C48   1.268       .  A
O42         Cd45   2.484       .  S
C43          O51   1.266       .  A
C43         C674   1.497       .  S
C44          O49   1.268       .  A
C44          O47   1.262       .  A
C44         C565   1.494       .  S
Cd45         O52   2.443       .  S
Cd45         O51   2.475       .  S
Cd45         O50   2.442       .  S
Cd45         O46   2.486       .  S
Cd45         O49   2.494       .  S
Cd45         O47   2.434       .  S
C48          O52   1.263       .  A
C48         C594   1.488       .  S
O53          C56   1.270       .  A
O53         Cd58   2.479       .  S
C54          O63   1.263       .  A
C54          O59   1.269       .  A
C54         C514   1.496       .  S
O55          C61   1.267       .  A
O55         Cd58   2.475       .  S
C56          O64   1.264       .  A
C56         C533   1.492       .  S
C57          O62   1.269       .  A
C57          O60   1.264       .  A
C57         C549   1.485       .  S
Cd58         O65   2.453       .  S
Cd58         O64   2.440       .  S
Cd58         O63   2.454       .  S
Cd58         O59   2.486       .  S
Cd58         O62   2.481       .  S
Cd58         O60   2.437       .  S
C61          O65   1.265       .  A
C61         C498   1.491       .  S
O66          C69   1.269       .  A
O66         Cd71   2.495       .  S
C67          O76   1.263       .  A
C67          O72   1.269       .  A
C67         C485   1.493       .  S
O68          C74   1.267       .  A
O68         Cd71   2.480       .  S
C69          O77   1.262       .  A
C69         C466   1.494       .  S
C70          O75   1.266       .  A
C70          O73   1.266       .  A
C70         C661   1.492       .  S
Cd71         O78   2.433       .  S
Cd71         O77   2.449       .  S
Cd71         O76   2.443       .  S
Cd71         O72   2.485       .  S
Cd71         O75   2.465       .  S
Cd71         O73   2.453       .  S
C74          O78   1.263       .  A
C74         C546   1.479       .  S
O79          C82   1.270       .  A
O79         Cd84   2.500       .  S
C80          O89   1.265       .  A
C80          O85   1.271       .  A
C80         C482   1.493       .  S
O81          C87   1.268       .  A
O81         Cd84   2.480       .  S
C82          O90   1.262       .  A
C82         C469   1.496       .  S
C83          O88   1.269       .  A
C83          O86   1.264       .  A
C83         C562   1.492       .  S
Cd84         O91   2.458       .  S
Cd84         O90   2.450       .  S
Cd84         O89   2.443       .  S
Cd84         O85   2.474       .  S
Cd84         O88   2.471       .  S
Cd84         O86   2.459       .  S
C87          O91   1.265       .  A
C87         C450   1.491       .  S
O92          C95   1.269       .  A
O92         Cd97   2.497       .  S
C93         O102   1.264       .  A
C93          O98   1.269       .  A
C93         C530   1.491       .  S
O94         C100   1.267       .  A
O94         Cd97   2.491       .  S
C95         O103   1.262       .  A
C95         C517   1.496       .  S
C96         O101   1.268       .  A
C96          O99   1.264       .  A
C96         C434   1.491       .  S
Cd97        O104   2.451       .  S
Cd97        O103   2.446       .  S
Cd97        O102   2.447       .  S
Cd97         O98   2.481       .  S
Cd97        O101   2.474       .  S
Cd97         O99   2.460       .  S
C100        O104   1.265       .  A
C100        C453   1.488       .  S
O105        C108   1.267       .  A
O105       Cd110   2.496       .  S
C106        O115   1.265       .  A
C106        O111   1.269       .  A
C106        C402   1.494       .  S
O107        C113   1.265       .  A
O107       Cd110   2.472       .  S
C108        O116   1.263       .  A
C108        C386   1.494       .  S
C109        O114   1.266       .  A
C109        O112   1.266       .  A
C109        C370   1.489       .  S
Cd110       O117   2.453       .  S
Cd110       O116   2.443       .  S
Cd110       O115   2.466       .  S
Cd110       O111   2.468       .  S
Cd110       O114   2.465       .  S
Cd110       O112   2.447       .  S
C113        O117   1.264       .  A
C113        C421   1.477       .  S
O118        C121   1.266       .  A
O118       Cd123   2.464       .  S
C119        O128   1.265       .  A
C119        O124   1.266       .  A
C119        C338   1.491       .  S
O120        C126   1.269       .  A
O120       Cd123   2.497       .  S
C121        O129   1.266       .  A
C121        C354   1.490       .  S
C122        O127   1.268       .  A
C122        O125   1.265       .  A
C122        C418   1.487       .  S
Cd123       O130   2.446       .  S
Cd123       O129   2.449       .  S
Cd123       O128   2.459       .  S
Cd123       O124   2.468       .  S
Cd123       O127   2.478       .  S
Cd123       O125   2.433       .  S
C126        O130   1.263       .  A
C126        C437   1.493       .  S
O131        C134   1.268       .  A
O131       Cd136   2.486       .  S
C132        O141   1.266       .  A
C132        O137   1.268       .  A
C132        C389   1.491       .  S
O133        C139   1.269       .  A
O133       Cd136   2.479       .  S
C134        O142   1.264       .  A
C134        C405   1.496       .  S
C135        O140   1.268       .  A
C135        O138   1.263       .  A
C135        C325   1.472       .  S
Cd136       O143   2.441       .  S
Cd136       O142   2.456       .  S
Cd136       O141   2.447       .  S
Cd136       O137   2.469       .  S
Cd136       O140   2.500       .  S
Cd136       O138   2.416       .  S
C139        O143   1.263       .  A
C139        C306   1.490       .  S
O144        C147   1.266       .  A
O144       Cd149   2.453       .  S
C145        O154   1.266       .  A
C145        O150   1.267       .  A
C145        C341   1.493       .  S
O146        C152   1.268       .  A
O146       Cd149   2.481       .  S
C147        O155   1.266       .  A
C147        C357   1.482       .  S
C148        O153   1.269       .  A
C148        O151   1.263       .  A
C148        C322   1.483       .  S
Cd149       O156   2.444       .  S
Cd149       O155   2.444       .  S
Cd149       O154   2.448       .  S
Cd149       O150   2.470       .  S
Cd149       O153   2.500       .  S
Cd149       O151   2.409       .  S
C152        O156   1.265       .  A
C152        C501   1.493       .  S
O157        C160   1.269       .  A
O157       Cd162   2.500       .  S
C158        O167   1.265       .  A
C158        O163   1.269       .  A
C158        C277   1.494       .  S
O159        C165   1.267       .  A
O159       Cd162   2.480       .  S
C160        O168   1.261       .  A
C160        C258   1.495       .  S
C161        O166   1.266       .  A
C161        O164   1.265       .  A
C161        C373   1.490       .  S
Cd162       O169   2.450       .  S
Cd162       O168   2.442       .  S
Cd162       O167   2.456       .  S
Cd162       O163   2.479       .  S
Cd162       O166   2.472       .  S
Cd162       O164   2.457       .  S
C165        O169   1.265       .  A
C165        C290   1.485       .  S
O170        C173   1.267       .  A
O170       Cd175   2.474       .  S
C171        O180   1.263       .  A
C171        O176   1.268       .  A
C171        C226   1.490       .  S
O172        C178   1.269       .  A
O172       Cd175   2.476       .  S
C173        O181   1.266       .  A
C173        C242   1.495       .  S
C174        O179   1.267       .  A
C174        O177   1.264       .  A
C174        C293   1.489       .  S
Cd175       O182   2.452       .  S
Cd175       O181   2.457       .  S
Cd175       O180   2.448       .  S
Cd175       O176   2.492       .  S
Cd175       O179   2.492       .  S
Cd175       O177   2.449       .  S
C178        O182   1.264       .  A
C178        C578   1.492       .  S
O183        C186   1.269       .  A
O183       Cd188   2.479       .  S
C184        O193   1.266       .  A
C184        O189   1.267       .  A
C184        C245   1.495       .  S
O185        C191   1.268       .  A
O185       Cd188   2.482       .  S
C186        O194   1.263       .  A
C186        C229   1.492       .  S
C187        O192   1.269       .  A
C187        O190   1.263       .  A
C187        C610   1.488       .  S
Cd188       O195   2.423       .  S
Cd188       O194   2.457       .  S
Cd188       O193   2.452       .  S
Cd188       O189   2.478       .  S
Cd188       O192   2.485       .  S
Cd188       O190   2.433       .  S
C191        O195   1.262       .  A
C191        C210   1.479       .  S
O196        C199   1.269   1_655  A
O196       Cd201   2.492   1_655  S
C197        O206   1.264       .  A
C197        O202   1.270   1_455  A
C197        C274   1.495       .  S
O198        C204   1.269       .  A
O198       Cd201   2.476       .  S
C199        O207   1.263       .  A
C199        C261   1.494       .  S
C200        O205   1.269       .  A
C200        O203   1.263       .  A
C200        C309   1.491       .  S
Cd201       O208   2.431       .  S
Cd201       O207   2.452       .  S
Cd201       O206   2.454       .  S
Cd201       O202   2.474   1_455  S
Cd201       O205   2.478       .  S
Cd201       O203   2.436       .  S
C204        O208   1.263       .  A
C204        C213   1.481       .  S
C209        C210   1.402       .  A
C209        C214   1.403       .  A
C209        H216   1.086       .  S
C210        C211   1.416       .  A
C211        C212   1.403       .  A
C211        C218   1.509       .  S
C212        C213   1.403       .  A
C212        H217   1.086       .  S
C213        C214   1.418       .  A
C214        C215   1.508       .  S
C215        H219   1.111       .  S
C215        H220   1.109       .  S
C215        H221   1.110       .  S
C218        H222   1.109       .  S
C218        H223   1.110       .  S
C218        H224   1.111       .  S
C225        C230   1.407       .  A
C225        C946   1.404   1_545  A
C225        H232   1.085       .  S
C226        C227   1.419       .  A
C226        C945   1.404       .  A
C227       C1668   1.404       .  A
C227        C234   1.509       .  S
C228       C1667   1.404   1_455  A
C228        C949   1.404       .  A
C228        H233   1.085       .  S
C229        C948   1.404   1_545  A
C229       C1670   1.421   1_455  A
C230       C1669   1.421       .  A
C230        C231   1.508       .  S
C231        H235   1.111       .  S
C231        H236   1.110       .  S
C231        H237   1.110       .  S
C234        H238   1.111       .  S
C234        H239   1.109       .  S
C234       H1680   1.111       .  S
H240       C1674   1.111   1_455  S
C241        C242   1.408       .  A
C241        C246   1.406       .  A
C241        H248   1.082       .  S
C242        C963   1.418       .  A
C243        C244   1.406       .  A
C243        C962   1.418   1_545  A
C243        C250   1.508       .  S
C244        C245   1.408       .  A
C244        H249   1.082       .  S
C245        C966   1.418   1_545  A
C246        C965   1.418       .  A
C246        C247   1.508       .  S
C247        H251   1.111       .  S
C247        H252   1.110       .  S
C247        H253   1.110       .  S
C250        H254   1.110       .  S
C250        H255   1.110       .  S
C250        H256   1.111       .  S
C257       C1698   1.404   1_455  A
C257        C982   1.406       .  A
C257        H264   1.085       .  S
C258        C259   1.422       .  A
C258       C1697   1.404       .  A
C259        C980   1.406       .  A
C259        C986   1.509       .  S
C260        C979   1.406   1_545  A
C260       C1701   1.404       .  A
C260        H265   1.085       .  S
C261        C262   1.421   1_545  A
C261       C1700   1.404   1_455  A
C262        C977   1.406       .  A
C262        C263   1.509       .  S
C263        H268   1.110   1_565  S
C263        H269   1.110   1_565  S
C263        H987   1.111       .  S
C266        C979   1.509       .  S
C266        H272   1.111   1_565  S
C266        H990   1.110       .  S
C266        H991   1.110       .  S
H267        C983   1.111       .  S
H270        C986   1.110       .  S
H271        C986   1.110       .  S
C273        C278   1.405       .  A
C273       C1714   1.405       .  A
C273        H280   1.085       .  S
C274        C275   1.421       .  A
C274       C1713   1.405   1_455  A
C275        C276   1.406       .  A
C275        C282   1.509       .  S
C276       C1717   1.405   1_455  A
C276        H281   1.085       .  S
C277        C278   1.420       .  A
C277       C1716   1.405       .  A
C278        C279   1.508       .  S
C279        H283   1.111       .  S
C279        H284   1.110       .  S
C279        H285   1.110       .  S
C282        H286   1.110       .  S
C282        H287   1.110       .  S
C282        H288   1.111       .  S
C289        C290   1.405       .  A
C289        C294   1.406       .  A
C289        H296   1.083       .  S
C290        C291   1.415       .  A
C291        C292   1.405       .  A
C291        C298   1.508       .  S
C292        C293   1.406       .  A
C292        H297   1.083       .  S
C293        C294   1.417       .  A
C294        C295   1.507       .  S
C295        H299   1.111       .  S
C295        H300   1.110       .  S
C295        H301   1.110       .  S
C298        H302   1.110       .  S
C298        H303   1.111       .  S
C298        H304   1.111       .  S
C305        C306   1.404       .  A
C305        C310   1.404       .  A
C305        H312   1.083       .  S
C306        C307   1.420       .  A
C307        C308   1.405       .  A
C307        C314   1.509       .  S
C308        C309   1.405       .  A
C308        H313   1.083       .  S
C309        C310   1.421       .  A
C310        C311   1.509       .  S
C311        H315   1.111       .  S
C311        H316   1.110       .  S
C311        H317   1.111       .  S
C314        H318   1.110       .  S
C314        H319   1.110       .  S
C314        H320   1.111       .  S
C321        C322   1.404       .  A
C321        C326   1.397       .  A
C321        H328   1.083       .  S
C322        C323   1.417       .  A
C323        C324   1.411       .  A
C323        C330   1.506       .  S
C324        C325   1.403       .  A
C324        H329   1.082       .  S
C325        C326   1.410       .  A
C326        C327   1.510       .  S
C327        H331   1.111       .  S
C327        H332   1.111       .  S
C327        H333   1.109       .  S
C330        H334   1.111       .  S
C330        H335   1.109       .  S
C330        H336   1.111       .  S
C337        C338   1.407       .  A
C337        C342   1.406       .  A
C337        H344   1.081       .  S
C338       C1059   1.417       .  A
C339        C340   1.404       .  A
C339       C1058   1.417   1_545  A
C339        C346   1.508       .  S
C340        C341   1.407       .  A
C340        H345   1.082       .  S
C341       C1062   1.418   1_545  A
C342       C1061   1.418       .  A
C342        C343   1.508       .  S
C343        H347   1.111       .  S
C343        H348   1.110       .  S
C343        H349   1.110       .  S
C346        H350   1.110       .  S
C346        H351   1.110       .  S
C346        H352   1.111       .  S
C353        C354   1.407       .  A
C353       C1798   1.403       .  A
C353        H360   1.085       .  S
C354       C1075   1.419       .  A
C355        C356   1.403       .  A
C355       C1074   1.419   1_545  A
C355        C362   1.508       .  S
C356       C1797   1.403       .  A
C356        H361   1.086       .  S
C357       C1796   1.403   1_455  A
C357       C1078   1.415   1_545  A
C358       C1793   1.403   1_455  A
C358       C1077   1.415       .  A
C358        C359   1.509       .  S
C359        H363   1.111       .  S
C359        H364   1.110       .  S
C359        H365   1.109       .  S
C362        H366   1.110       .  S
C362        H367   1.110       .  S
C362        H368   1.111       .  S
C369        C370   1.407       .  A
C369        C374   1.405       .  A
C369        H376   1.080       .  S
C370        C371   1.417       .  A
C371        C372   1.405       .  A
C371        C378   1.508       .  S
C372        C373   1.407       .  A
C372        H377   1.080       .  S
C373        C374   1.417       .  A
C374        C375   1.508       .  S
C375        H379   1.110       .  S
C375        H380   1.110       .  S
C375        H381   1.111       .  S
C378        H382   1.110       .  S
C378        H383   1.110       .  S
C378        H384   1.110       .  S
C385        C386   1.408       .  A
C385       C1110   1.404       .  A
C385        H392   1.082       .  S
C386        C387   1.418       .  A
C387       C1108   1.406       .  A
C387        C394   1.508       .  S
C388        C389   1.408       .  A
C388       C1107   1.406   1_545  A
C388        H393   1.082       .  S
C389        C390   1.416       .  A
C390       C1105   1.404   1_545  A
C390        C391   1.508       .  S
C391        H395   1.111       .  S
C391        H396   1.110       .  S
C391        H397   1.110       .  S
C394        H398   1.110       .  S
C394        H399   1.110       .  S
C394        H400   1.111       .  S
C401        C402   1.404       .  A
C401        C406   1.405       .  A
C401        H408   1.084       .  S
C402        C403   1.420       .  A
C403        C404   1.407       .  A
C403        C410   1.508       .  S
C404        C405   1.407       .  A
C404        H409   1.084       .  S
C405        C406   1.421       .  A
C406        C407   1.509       .  S
C407        H411   1.111       .  S
C407        H412   1.110       .  S
C407        H413   1.110       .  S
C410        H414   1.110       .  S
C410        H415   1.110       .  S
C410        H416   1.111       .  S
C417        C418   1.408       .  A
C417        C422   1.403       .  A
C417        H424   1.082       .  S
C418        C419   1.418       .  A
C419        C420   1.405       .  A
C419        C426   1.507       .  S
C420        C421   1.402       .  A
C420        H425   1.083       .  S
C421        C422   1.412       .  A
C422        C423   1.508       .  S
C423        H427   1.111       .  S
C423        H428   1.110       .  S
C423        H429   1.111       .  S
C426        H430   1.110       .  S
C426        H431   1.110       .  S
C426        H432   1.111       .  S
C433        C434   1.403       .  A
C433        C438   1.404       .  A
C433        H440   1.085       .  S
C434        C435   1.419       .  A
C435        C436   1.407       .  A
C435        C442   1.508       .  S
C436        C437   1.405       .  A
C436        H441   1.085       .  S
C437        C438   1.420       .  A
C438        C439   1.509       .  S
C439        H443   1.111       .  S
C439        H444   1.110       .  S
C439        H445   1.110       .  S
C442        H446   1.111       .  S
C442        H447   1.109       .  S
C442        H448   1.111       .  S
C449        C450   1.407       .  A
C449        C454   1.407   1_556  A
C449        H456   1.083       .  S
C450        C451   1.417       .  A
C451        C452   1.405   1_556  A
C451        C458   1.508       .  S
C452        C453   1.405       .  A
C452        H457   1.083       .  S
C453        C454   1.416       .  A
C454        C455   1.507       .  S
C455        H459   1.111       .  S
C455        H460   1.110       .  S
C455        H461   1.110       .  S
C458        H462   1.110       .  S
C458        H463   1.110       .  S
C458        H464   1.111       .  S
C465        C466   1.404       .  A
C465        C470   1.406       .  A
C465        H472   1.085       .  S
C466        C467   1.421       .  A
C467        C468   1.406       .  A
C467        C474   1.509       .  S
C468        C469   1.405       .  A
C468        H473   1.084       .  S
C469        C470   1.422       .  A
C470        C471   1.509       .  S
C471        H475   1.111       .  S
C471        H476   1.111       .  S
C471        H477   1.110       .  S
C474        H478   1.110       .  S
C474        H479   1.110       .  S
C474        H480   1.111       .  S
C481        C482   1.404       .  A
C481        C486   1.405       .  A
C481        H488   1.085       .  S
C482       C1203   1.421       .  A
C483        C484   1.406       .  A
C483       C1202   1.421   1_545  A
C483        C490   1.509   1_545  S
C484        C485   1.405       .  A
C484        H489   1.085       .  S
C485       C1206   1.421       .  A
C486       C1205   1.421       .  A
C486        C487   1.509       .  S
C487        H491   1.111       .  S
C487       H1212   1.110       .  S
C487       H1213   1.111       .  S
C490        H496   1.111   1_565  S
C490       H1214   1.110       .  S
C490       H1215   1.110       .  S
H492       C1207   1.110       .  S
H493       C1207   1.111       .  S
H494       C1210   1.110       .  S
H495       C1210   1.110       .  S
C497        C498   1.407       .  A
C497        C502   1.406       .  A
C497        H504   1.086       .  S
C498        C499   1.417       .  A
C499        C500   1.404       .  A
C499        C506   1.508       .  S
C500        C501   1.407       .  A
C500        H505   1.086       .  S
C501        C502   1.418       .  A
C502        C503   1.508       .  S
C503        H507   1.111       .  S
C503        H508   1.110       .  S
C503        H509   1.110       .  S
C506        H510   1.110       .  S
C506        H511   1.110       .  S
C506        H512   1.111       .  S
C513        C514   1.404       .  A
C513        C518   1.405       .  A
C513        H520   1.085       .  S
C514        C515   1.422       .  A
C515        C516   1.407       .  A
C515        C522   1.509       .  S
C516        C517   1.405       .  A
C516        H521   1.085       .  S
C517        C518   1.422       .  A
C518        C519   1.509       .  S
C519        H523   1.111       .  S
C519        H524   1.110       .  S
C519        H525   1.110       .  S
C522        H526   1.110       .  S
C522        H527   1.110       .  S
C522        H528   1.111       .  S
C529        C530   1.404       .  A
C529        C534   1.405       .  A
C529        H536   1.086       .  S
C530        C531   1.419       .  A
C531       C1972   1.405       .  A
C531        C538   1.509       .  S
C532        C533   1.405       .  A
C532       C1971   1.405   1_455  A
C532        H537   1.086       .  S
C533       C1974   1.421   1_455  A
C534       C1973   1.421       .  A
C534        C535   1.509       .  S
C535        H539   1.111       .  S
C535        H540   1.110       .  S
C535        H541   1.111       .  S
C538        H542   1.110       .  S
C538        H543   1.110       .  S
C538       H1984   1.111       .  S
H544       C1978   1.111   1_455  S
C545        C546   1.402       .  A
C545        C550   1.404   1_556  A
C545        H552   1.086       .  S
C546        C547   1.415       .  A
C547        C548   1.403   1_556  A
C547        C554   1.508       .  S
C548        C549   1.404       .  A
C548        H553   1.086       .  S
C549        C550   1.419       .  A
C550        C551   1.508       .  S
C551        H555   1.111   1_554  S
C551        H556   1.109       .  S
C551        H557   1.110       .  S
C554        H558   1.109       .  S
C554        H559   1.110       .  S
C554        H560   1.111   1_556  S
C561        C562   1.403       .  A
C561        C566   1.403       .  A
C561        H568   1.083       .  S
C562        C563   1.420       .  A
C563        C564   1.407       .  A
C563        C570   1.508       .  S
C564        C565   1.406       .  A
C564        H569   1.083       .  S
C565        C566   1.421       .  A
C566        C567   1.509       .  S
C567        H571   1.111       .  S
C567        H572   1.110       .  S
C567        H573   1.110       .  S
C570        H574   1.111       .  S
C570        H575   1.110       .  S
C570        H576   1.111       .  S
C577        C578   1.404       .  A
C577        C582   1.405       .  A
C577        H584   1.085       .  S
C578        C579   1.420       .  A
C579        C580   1.405       .  A
C579        C586   1.508       .  S
C580        C581   1.405       .  A
C580        H585   1.085       .  S
C581        C582   1.421       .  A
C582        C583   1.509       .  S
C583        H587   1.111       .  S
C583        H588   1.110       .  S
C583        H589   1.110       .  S
C586        H590   1.110       .  S
C586        H591   1.110       .  S
C586        H592   1.111       .  S
C593        C594   1.405       .  A
C593        C598   1.404       .  A
C593        H600   1.085       .  S
C594        C595   1.420       .  A
C595        C596   1.405       .  A
C595        C602   1.509       .  S
C596        C597   1.403       .  A
C596        H601   1.085       .  S
C597        C598   1.415       .  A
C598        C599   1.508       .  S
C599        H603   1.111       .  S
C599        H604   1.109       .  S
C599        H605   1.110       .  S
C602        H606   1.109       .  S
C602        H607   1.110       .  S
C602        H608   1.111       .  S
C609        C610   1.406       .  A
C609        C614   1.406       .  A
C609        H616   1.083       .  S
C610        C611   1.420       .  A
C611        C612   1.403       .  A
C611        C618   1.509       .  S
C612        C613   1.401       .  A
C612        H617   1.084       .  S
C613        C614   1.416       .  A
C614        C615   1.508       .  S
C615        H619   1.111       .  S
C615        H620   1.111       .  S
C615        H621   1.109       .  S
C618        H622   1.110       .  S
C618        H623   1.111       .  S
C618        H624   1.111       .  S
C625        C630   1.406       .  A
C625       C2066   1.408       .  A
C625        H632   1.082       .  S
C626        C627   1.418       .  A
C626       C2065   1.408   1_455  A
C627       C2068   1.405   1_455  A
C627        C634   1.508       .  S
C628        C629   1.407       .  A
C628       C2067   1.405       .  A
C628        H633   1.082       .  S
C629        C630   1.417       .  A
C630        C631   1.508       .  S
C631        H635   1.111       .  S
C631        H636   1.110       .  S
C631        H637   1.110       .  S
C634        H638   1.110       .  S
C634        H639   1.110       .  S
C634        H640   1.111       .  S
C641        C642   1.407       .  A
C641        C646   1.405       .  A
C641        H648   1.082       .  S
C642        C643   1.419       .  A
C643        C644   1.406       .  A
C643        C650   1.509       .  S
C644        C645   1.407       .  A
C644        H649   1.081       .  S
C645        C646   1.418       .  A
C646        C647   1.508       .  S
C647        H651   1.111       .  S
C647        H652   1.110       .  S
C647        H653   1.110       .  S
C650        H654   1.110       .  S
C650        H655   1.110       .  S
C650        H656   1.111       .  S
C657        C658   1.407       .  A
C657        C662   1.405       .  A
C657        H664   1.080       .  S
C658        C659   1.416       .  A
C659        C660   1.404       .  A
C659        C666   1.508       .  S
C660        C661   1.407       .  A
C660        H665   1.080       .  S
C661        C662   1.419       .  A
C662        C663   1.508       .  S
C663        H667   1.110       .  S
C663        H668   1.110       .  S
C663        H669   1.110       .  S
C666        H670   1.111       .  S
C666        H671   1.110       .  S
C666        H672   1.110       .  S
C673        C674   1.409       .  A
C673        C678   1.409       .  A
C673        H680   1.081       .  S
C674       C2115   1.418       .  A
C675        C676   1.405       .  A
C675       C2114   1.418   1_455  A
C675        C682   1.509       .  S
C676        C677   1.407       .  A
C676        H681   1.081       .  S
C677       C2118   1.418   1_455  A
C678       C2117   1.418       .  A
C678        C679   1.508       .  S
C679        H683   1.111       .  S
C679        H684   1.110       .  S
C679        H685   1.110       .  S
C682        H686   1.110       .  S
C682        H687   1.110       .  S
C682        H688   1.111       .  S
C689        C694   1.409       .  A
C689       C1410   1.409       .  A
C689        H696   1.081       .  S
C690       C1409   1.409   1_545  A
C690       C2131   1.418   1_455  A
C691        C692   1.403   1_545  A
C691       C2130   1.418       .  A
C691        C698   1.509       .  S
C692       C1413   1.406       .  A
C692        H697   1.081       .  S
C693       C1412   1.406       .  A
C693       C2134   1.418       .  A
C694       C2133   1.418   1_455  A
C694        C695   1.508       .  S
C695        H699   1.111       .  S
C695        H700   1.110       .  S
C695        H701   1.110       .  S
C698        H702   1.110       .  S
C698        H703   1.110       .  S
C698        H704   1.111       .  S
C705        C706   1.405       .  A
C705        C710   1.404       .  A
C705        H712   1.085       .  S
C706        C707   1.417       .  A
C707        C708   1.405       .  A
C707        C714   1.508       .  S
C708        C709   1.405       .  A
C708        H713   1.085       .  S
C709        C710   1.416       .  A
C710        C711   1.508       .  S
C711        H715   1.111       .  S
C711        H716   1.110       .  S
C711        H717   1.110       .  S
C714        H718   1.110       .  S
C714        H719   1.110       .  S
C714        H720   1.111       .  S
O721        C724   1.266       .  A
O721       Cd726   2.460       .  S
C722        O731   1.264       .  A
C722        O727   1.267       .  A
C722       C1397   1.496       .  S
O723        C729   1.266       .  A
O723       Cd726   2.470       .  S
C724        O732   1.267       .  A
C724       C1410   1.495       .  S
C725        O730   1.266       .  A
C725        O728   1.265       .  A
C725       C1426   1.487       .  S
Cd726       O733   2.455       .  S
Cd726       O732   2.479       .  S
Cd726       O731   2.445       .  S
Cd726       O727   2.501       .  S
Cd726       O730   2.483       .  S
Cd726       O728   2.451       .  S
C729        O733   1.265       .  A
C729       C1378   1.489       .  S
O734        C737   1.267       .  A
O734       Cd739   2.461       .  S
C735        O744   1.264       .  A
C735        O740   1.266       .  A
C735       C1346   1.493       .  S
O736        C742   1.268       .  A
O736       Cd739   2.464       .  S
C737        O745   1.266       .  A
C737       C1365   1.493       .  S
C738        O743   1.266       .  A
C738        O741   1.265       .  A
C738       C1429   1.487       .  S
Cd739       O746   2.452       .  S
Cd739       O745   2.457       .  S
Cd739       O744   2.463       .  S
Cd739       O740   2.480       .  S
Cd739       O743   2.478       .  S
Cd739       O741   2.451       .  S
C742        O746   1.264       .  A
C742       C1333   1.481       .  S
O747        C750   1.267       .  A
O747       Cd752   2.477       .  S
C748        O757   1.267       .  A
C748        O753   1.266       .  A
C748       C1362   1.493       .  S
O749        C755   1.268       .  A
O749       Cd752   2.485       .  S
C750        O758   1.265       .  A
C750       C1349   1.490       .  S
C751        O756   1.269       .  A
C751        O754   1.262       .  A
C751       C1301   1.493       .  S
Cd752       O759   2.448       .  S
Cd752       O758   2.445       .  S
Cd752       O757   2.456       .  S
Cd752       O753   2.465       .  S
Cd752       O756   2.486       .  S
Cd752       O754   2.440       .  S
C755        O759   1.263       .  A
C755       C1317   1.483       .  S
O760        C763   1.266       .  A
O760       Cd765   2.470       .  S
C761        O770   1.265       .  A
C761        O766   1.267       .  A
C761       C1413   1.494       .  S
O762        C768   1.268       .  A
O762       Cd765   2.484       .  S
C763        O771   1.266       .  A
C763       C1394   1.497       .  S
C764        O769   1.268       .  A
C764        O767   1.262       .  A
C764       C1285   1.494       .  S
Cd765       O772   2.443       .  S
Cd765       O771   2.475       .  S
Cd765       O770   2.442       .  S
Cd765       O766   2.486       .  S
Cd765       O769   2.494       .  S
Cd765       O767   2.434       .  S
C768        O772   1.263       .  A
C768       C1314   1.488       .  S
O773        C776   1.270       .  A
O773       Cd778   2.479       .  S
C774        O783   1.263       .  A
C774        O779   1.269       .  A
C774       C1234   1.496       .  S
O775        C781   1.267       .  A
O775       Cd778   2.475       .  S
C776        O784   1.264       .  A
C776       C1253   1.492       .  S
C777        O782   1.269       .  A
C777        O780   1.264       .  A
C777       C1269   1.485       .  S
Cd778       O785   2.453       .  S
Cd778       O784   2.440       .  S
Cd778       O783   2.454       .  S
Cd778       O779   2.486       .  S
Cd778       O782   2.482       .  S
Cd778       O780   2.437       .  S
C781        O785   1.265       .  A
C781       C1218   1.491       .  S
O786        C789   1.269       .  A
O786       Cd791   2.495       .  S
C787        O796   1.263       .  A
C787        O792   1.269       .  A
C787       C1205   1.493       .  S
O788        C794   1.267       .  A
O788       Cd791   2.480       .  S
C789        O797   1.262       .  A
C789       C1186   1.494       .  S
C790        O795   1.266       .  A
C790        O793   1.266       .  A
C790       C1381   1.492       .  S
Cd791       O798   2.433       .  S
Cd791       O797   2.449       .  S
Cd791       O796   2.443       .  S
Cd791       O792   2.485       .  S
Cd791       O795   2.465       .  S
Cd791       O793   2.453       .  S
C794        O798   1.263       .  A
C794       C1266   1.479       .  S
O799        C802   1.270       .  A
O799       Cd804   2.500       .  S
C800        O809   1.265       .  A
C800        O805   1.271       .  A
C800       C1202   1.493       .  S
O801        C807   1.268       .  A
O801       Cd804   2.480       .  S
C802        O810   1.262       .  A
C802       C1189   1.496       .  S
C803        O808   1.269       .  A
C803        O806   1.264       .  A
C803       C1282   1.492       .  S
Cd804       O811   2.458       .  S
Cd804       O810   2.450       .  S
Cd804       O809   2.443       .  S
Cd804       O805   2.474       .  S
Cd804       O808   2.471       .  S
Cd804       O806   2.459       .  S
C807        O811   1.265       .  A
C807       C1170   1.491       .  S
O812        C815   1.269       .  A
O812       Cd817   2.497       .  S
C813        O822   1.264       .  A
C813        O818   1.269       .  A
C813       C1250   1.491       .  S
O814        C820   1.267       .  A
O814       Cd817   2.491       .  S
C815        O823   1.262       .  A
C815       C1237   1.496       .  S
C816        O821   1.268       .  A
C816        O819   1.264       .  A
C816       C1154   1.491       .  S
Cd817       O824   2.451       .  S
Cd817       O823   2.446       .  S
Cd817       O822   2.447       .  S
Cd817       O818   2.481       .  S
Cd817       O821   2.474       .  S
Cd817       O819   2.460       .  S
C820        O824   1.265       .  A
C820       C1173   1.488       .  S
O825        C828   1.267       .  A
O825       Cd830   2.496       .  S
C826        O835   1.265       .  A
C826        O831   1.269       .  A
C826       C1122   1.494       .  S
O827        C833   1.265       .  A
O827       Cd830   2.472       .  S
C828        O836   1.263       .  A
C828       C1106   1.494       .  S
C829        O834   1.266       .  A
C829        O832   1.266       .  A
C829       C1090   1.489       .  S
Cd830       O837   2.453       .  S
Cd830       O836   2.443       .  S
Cd830       O835   2.466       .  S
Cd830       O831   2.468       .  S
Cd830       O834   2.465       .  S
Cd830       O832   2.447       .  S
C833        O837   1.264       .  A
C833       C1141   1.477       .  S
O838        C841   1.266       .  A
O838       Cd843   2.464       .  S
C839        O848   1.265       .  A
C839        O844   1.266       .  A
C839       C1058   1.491       .  S
O840        C846   1.269       .  A
O840       Cd843   2.497       .  S
C841        O849   1.266       .  A
C841       C1074   1.490       .  S
C842        O847   1.268       .  A
C842        O845   1.265       .  A
C842       C1138   1.487       .  S
Cd843       O850   2.446       .  S
Cd843       O849   2.449       .  S
Cd843       O848   2.459       .  S
Cd843       O844   2.468       .  S
Cd843       O847   2.478       .  S
Cd843       O845   2.433       .  S
C846        O850   1.263       .  A
C846       C1157   1.493       .  S
O851        C854   1.268       .  A
O851       Cd856   2.486       .  S
C852        O861   1.266       .  A
C852        O857   1.268       .  A
C852       C1109   1.491       .  S
O853        C859   1.269       .  A
O853       Cd856   2.479       .  S
C854        O862   1.264       .  A
C854       C1125   1.496       .  S
C855        O860   1.268       .  A
C855        O858   1.263       .  A
C855       C1045   1.472       .  S
Cd856       O863   2.441       .  S
Cd856       O862   2.456       .  S
Cd856       O861   2.447       .  S
Cd856       O857   2.469       .  S
Cd856       O860   2.500       .  S
Cd856       O858   2.416       .  S
C859        O863   1.263       .  A
C859       C1026   1.490       .  S
O864        C867   1.266       .  A
O864       Cd869   2.453       .  S
C865        O874   1.266       .  A
C865        O870   1.267       .  A
C865       C1061   1.493       .  S
O866        C872   1.268       .  A
O866       Cd869   2.481       .  S
C867        O875   1.266       .  A
C867       C1077   1.482       .  S
C868        O873   1.269       .  A
C868        O871   1.263       .  A
C868       C1042   1.483       .  S
Cd869       O876   2.444       .  S
Cd869       O875   2.444       .  S
Cd869       O874   2.448       .  S
Cd869       O870   2.470       .  S
Cd869       O873   2.500       .  S
Cd869       O871   2.409       .  S
C872        O876   1.265       .  A
C872       C1221   1.493       .  S
O877        C880   1.269       .  A
O877       Cd882   2.500       .  S
C878        O887   1.265       .  A
C878        O883   1.269       .  A
C878        C997   1.494       .  S
O879        C885   1.267       .  A
O879       Cd882   2.480       .  S
C880        O888   1.261       .  A
C880        C978   1.495       .  S
C881        O886   1.266       .  A
C881        O884   1.265       .  A
C881       C1093   1.490       .  S
Cd882       O889   2.450       .  S
Cd882       O888   2.442       .  S
Cd882       O887   2.456       .  S
Cd882       O883   2.479       .  S
Cd882       O886   2.472       .  S
Cd882       O884   2.457       .  S
C885        O889   1.265       .  A
C885       C1010   1.485       .  S
O890        C893   1.267       .  A
O890       Cd895   2.474       .  S
C891        O900   1.263       .  A
C891        O896   1.268       .  A
C891        C946   1.490       .  S
O892        C898   1.269       .  A
O892       Cd895   2.476       .  S
C893        O901   1.266       .  A
C893        C962   1.495       .  S
C894        O899   1.267       .  A
C894        O897   1.264       .  A
C894       C1013   1.489       .  S
Cd895       O902   2.452       .  S
Cd895       O901   2.457       .  S
Cd895       O900   2.448       .  S
Cd895       O896   2.492       .  S
Cd895       O899   2.492       .  S
Cd895       O897   2.449       .  S
C898        O902   1.264       .  A
C898       C1298   1.492       .  S
O903        C906   1.269       .  A
O903       Cd908   2.479       .  S
C904        O913   1.266       .  A
C904        O909   1.267       .  A
C904        C965   1.495       .  S
O905        C911   1.268       .  A
O905       Cd908   2.482       .  S
C906        O914   1.263       .  A
C906        C949   1.492       .  S
C907        O912   1.269       .  A
C907        O910   1.263       .  A
C907       C1330   1.488       .  S
Cd908       O915   2.423       .  S
Cd908       O914   2.457       .  S
Cd908       O913   2.452       .  S
Cd908       O909   2.478       .  S
Cd908       O912   2.485       .  S
Cd908       O910   2.433       .  S
C911        O915   1.262       .  A
C911        C930   1.479       .  S
O916        C919   1.269   1_655  A
O916       Cd921   2.492   1_655  S
C917        O926   1.264       .  A
C917        O922   1.270   1_455  A
C917        C994   1.495       .  S
O918        C924   1.269       .  A
O918       Cd921   2.476       .  S
C919        O927   1.263       .  A
C919        C981   1.494       .  S
C920        O925   1.269       .  A
C920        O923   1.263       .  A
C920       C1029   1.491       .  S
Cd921       O928   2.431       .  S
Cd921       O927   2.452       .  S
Cd921       O926   2.454       .  S
Cd921       O922   2.474   1_455  S
Cd921       O925   2.478       .  S
Cd921       O923   2.436       .  S
C924        O928   1.263       .  A
C924        C933   1.481       .  S
C929        C930   1.402       .  A
C929        C934   1.403       .  A
C929        H936   1.086       .  S
C930        C931   1.416       .  A
C931        C932   1.403       .  A
C931        C938   1.509       .  S
C932        C933   1.403       .  A
C932        H937   1.086       .  S
C933        C934   1.418       .  A
C934        C935   1.508       .  S
C935        H939   1.111       .  S
C935        H940   1.109       .  S
C935        H941   1.110       .  S
C938        H942   1.109       .  S
C938        H943   1.110       .  S
C938        H944   1.111       .  S
C945        C950   1.407       .  A
C945        H952   1.085       .  S
C946        C947   1.419       .  A
C947       C2388   1.404       .  A
C947        C954   1.509       .  S
C948       C2387   1.404   1_455  A
C948        H953   1.085       .  S
C949       C2390   1.421   1_455  A
C950       C2389   1.421       .  A
C950        C951   1.508       .  S
C951        H955   1.111       .  S
C951        H956   1.110       .  S
C951        H957   1.110       .  S
C954        H958   1.111       .  S
C954        H959   1.109       .  S
C954       H2400   1.111       .  S
H960       C2394   1.111   1_455  S
C961        C962   1.408       .  A
C961        C966   1.406       .  A
C961        H968   1.082       .  S
C963        C964   1.406       .  A
C963        C970   1.508       .  S
C964        C965   1.408       .  A
C964        H969   1.082       .  S
C966        C967   1.508       .  S
C967        H971   1.111       .  S
C967        H972   1.110       .  S
C967        H973   1.110       .  S
C970        H974   1.110       .  S
C970        H975   1.110       .  S
C970        H976   1.111       .  S
C977       C2418   1.404   1_455  A
C977        H984   1.085       .  S
C978       C2417   1.404       .  A
C978        C979   1.422       .  A
C980       C2421   1.404       .  A
C980        H985   1.085       .  S
C981       C2420   1.404   1_455  A
C981        C982   1.421       .  A
C982        C983   1.509       .  S
C983        H988   1.110       .  S
C983        H989   1.110       .  S
C986        H992   1.111       .  S
C993       C2434   1.405       .  A
C993        C998   1.405       .  A
C993       H1000   1.085       .  S
C994       C2433   1.405   1_455  A
C994        C995   1.421       .  A
C995        C996   1.406       .  A
C995       C1002   1.509       .  S
C996       C2437   1.405   1_455  A
C996       H1001   1.085       .  S
C997       C2436   1.405       .  A
C997        C998   1.420       .  A
C998        C999   1.508       .  S
C999       H1003   1.111       .  S
C999       H1004   1.110       .  S
C999       H1005   1.110       .  S
C1002      H1006   1.110       .  S
C1002      H1007   1.110       .  S
C1002      H1008   1.111       .  S
C1009      C1010   1.405       .  A
C1009      C1014   1.406       .  A
C1009      H1016   1.083       .  S
C1010      C1011   1.415       .  A
C1011      C1012   1.405       .  A
C1011      C1018   1.508       .  S
C1012      C1013   1.406       .  A
C1012      H1017   1.083       .  S
C1013      C1014   1.417       .  A
C1014      C1015   1.507       .  S
C1015      H1019   1.111       .  S
C1015      H1020   1.110       .  S
C1015      H1021   1.110       .  S
C1018      H1022   1.110       .  S
C1018      H1023   1.111       .  S
C1018      H1024   1.111       .  S
C1025      C1026   1.404       .  A
C1025      C1030   1.404       .  A
C1025      H1032   1.083       .  S
C1026      C1027   1.420       .  A
C1027      C1028   1.405       .  A
C1027      C1034   1.509       .  S
C1028      C1029   1.405       .  A
C1028      H1033   1.083       .  S
C1029      C1030   1.421       .  A
C1030      C1031   1.509       .  S
C1031      H1035   1.111       .  S
C1031      H1036   1.110       .  S
C1031      H1037   1.111       .  S
C1034      H1038   1.110       .  S
C1034      H1039   1.110       .  S
C1034      H1040   1.111       .  S
C1041      C1042   1.404       .  A
C1041      C1046   1.397       .  A
C1041      H1048   1.083       .  S
C1042      C1043   1.417       .  A
C1043      C1044   1.411       .  A
C1043      C1050   1.506       .  S
C1044      C1045   1.403       .  A
C1044      H1049   1.082       .  S
C1045      C1046   1.410       .  A
C1046      C1047   1.510       .  S
C1047      H1051   1.111       .  S
C1047      H1052   1.111       .  S
C1047      H1053   1.109       .  S
C1050      H1054   1.111       .  S
C1050      H1055   1.109       .  S
C1050      H1056   1.111       .  S
C1057      C1058   1.407       .  A
C1057      C1062   1.406       .  A
C1057      H1064   1.081       .  S
C1059      C1060   1.404       .  A
C1059      C1066   1.508       .  S
C1060      C1061   1.407       .  A
C1060      H1065   1.082       .  S
C1062      C1063   1.508       .  S
C1063      H1067   1.111       .  S
C1063      H1068   1.110       .  S
C1063      H1069   1.110       .  S
C1066      H1070   1.110       .  S
C1066      H1071   1.110       .  S
C1066      H1072   1.111       .  S
C1073      C1074   1.407       .  A
C1073      C2518   1.403       .  A
C1073      H1080   1.085       .  S
C1075      C1076   1.403       .  A
C1075      C1082   1.508       .  S
C1076      C2517   1.403       .  A
C1076      H1081   1.086       .  S
C1077      C2516   1.403   1_455  A
C1078      C2513   1.403   1_455  A
C1078      C1079   1.509       .  S
C1079      H1083   1.111       .  S
C1079      H1084   1.110       .  S
C1079      H1085   1.109       .  S
C1082      H1086   1.110       .  S
C1082      H1087   1.110       .  S
C1082      H1088   1.111       .  S
C1089      C1090   1.407       .  A
C1089      C1094   1.405       .  A
C1089      H1096   1.080       .  S
C1090      C1091   1.417       .  A
C1091      C1092   1.405       .  A
C1091      C1098   1.508       .  S
C1092      C1093   1.407       .  A
C1092      H1097   1.080       .  S
C1093      C1094   1.417       .  A
C1094      C1095   1.508       .  S
C1095      H1099   1.110       .  S
C1095      H1100   1.110       .  S
C1095      H1101   1.111       .  S
C1098      H1102   1.110       .  S
C1098      H1103   1.110       .  S
C1098      H1104   1.110       .  S
C1105      C1106   1.408       .  A
C1105      H1112   1.082       .  S
C1106      C1107   1.418       .  A
C1107      C1114   1.508       .  S
C1108      C1109   1.408       .  A
C1108      H1113   1.082       .  S
C1109      C1110   1.416       .  A
C1110      C1111   1.508       .  S
C1111      H1115   1.111       .  S
C1111      H1116   1.110       .  S
C1111      H1117   1.110       .  S
C1114      H1118   1.110       .  S
C1114      H1119   1.110       .  S
C1114      H1120   1.111       .  S
C1121      C1122   1.404       .  A
C1121      C1126   1.405       .  A
C1121      H1128   1.084       .  S
C1122      C1123   1.420       .  A
C1123      C1124   1.407       .  A
C1123      C1130   1.508       .  S
C1124      C1125   1.407       .  A
C1124      H1129   1.084       .  S
C1125      C1126   1.421       .  A
C1126      C1127   1.509       .  S
C1127      H1131   1.111       .  S
C1127      H1132   1.110       .  S
C1127      H1133   1.110       .  S
C1130      H1134   1.110       .  S
C1130      H1135   1.110       .  S
C1130      H1136   1.111       .  S
C1137      C1138   1.408       .  A
C1137      C1142   1.403       .  A
C1137      H1144   1.082       .  S
C1138      C1139   1.418       .  A
C1139      C1140   1.405       .  A
C1139      C1146   1.507       .  S
C1140      C1141   1.402       .  A
C1140      H1145   1.083       .  S
C1141      C1142   1.412       .  A
C1142      C1143   1.508       .  S
C1143      H1147   1.111       .  S
C1143      H1148   1.110       .  S
C1143      H1149   1.111       .  S
C1146      H1150   1.110       .  S
C1146      H1151   1.110       .  S
C1146      H1152   1.111       .  S
C1153      C1154   1.403       .  A
C1153      C1158   1.404       .  A
C1153      H1160   1.085       .  S
C1154      C1155   1.419       .  A
C1155      C1156   1.407       .  A
C1155      C1162   1.508       .  S
C1156      C1157   1.405       .  A
C1156      H1161   1.085       .  S
C1157      C1158   1.420       .  A
C1158      C1159   1.509       .  S
C1159      H1163   1.111       .  S
C1159      H1164   1.110       .  S
C1159      H1165   1.110       .  S
C1162      H1166   1.111       .  S
C1162      H1167   1.109       .  S
C1162      H1168   1.111       .  S
C1169      C1170   1.407       .  A
C1169      C1174   1.407   1_556  A
C1169      H1176   1.083       .  S
C1170      C1171   1.417       .  A
C1171      C1172   1.405   1_556  A
C1171      C1178   1.508       .  S
C1172      C1173   1.405       .  A
C1172      H1177   1.083       .  S
C1173      C1174   1.416       .  A
C1174      C1175   1.507       .  S
C1175      H1179   1.111       .  S
C1175      H1180   1.110       .  S
C1175      H1181   1.110       .  S
C1178      H1182   1.110       .  S
C1178      H1183   1.110       .  S
C1178      H1184   1.111       .  S
C1185      C1186   1.404       .  A
C1185      C1190   1.406       .  A
C1185      H1192   1.085       .  S
C1186      C1187   1.421       .  A
C1187      C1188   1.406       .  A
C1187      C1194   1.509       .  S
C1188      C1189   1.405       .  A
C1188      H1193   1.084       .  S
C1189      C1190   1.422       .  A
C1190      C1191   1.509       .  S
C1191      H1195   1.111       .  S
C1191      H1196   1.111       .  S
C1191      H1197   1.110       .  S
C1194      H1198   1.110       .  S
C1194      H1199   1.110       .  S
C1194      H1200   1.111       .  S
C1201      C1202   1.404       .  A
C1201      C1206   1.405   1_565  A
C1201      H1208   1.085       .  S
C1203      C1204   1.406       .  A
C1203      C1210   1.509       .  S
C1204      C1205   1.405       .  A
C1204      H1209   1.085       .  S
C1206      C1207   1.509       .  S
C1207      H1211   1.111   1_545  S
C1210      H1216   1.111       .  S
C1217      C1218   1.407       .  A
C1217      C1222   1.406       .  A
C1217      H1224   1.086       .  S
C1218      C1219   1.417       .  A
C1219      C1220   1.404       .  A
C1219      C1226   1.508       .  S
C1220      C1221   1.407       .  A
C1220      H1225   1.086       .  S
C1221      C1222   1.418       .  A
C1222      C1223   1.508       .  S
C1223      H1227   1.111       .  S
C1223      H1228   1.110       .  S
C1223      H1229   1.110       .  S
C1226      H1230   1.110       .  S
C1226      H1231   1.110       .  S
C1226      H1232   1.111       .  S
C1233      C1234   1.404       .  A
C1233      C1238   1.405       .  A
C1233      H1240   1.085       .  S
C1234      C1235   1.422       .  A
C1235      C1236   1.407       .  A
C1235      C1242   1.509       .  S
C1236      C1237   1.405       .  A
C1236      H1241   1.085       .  S
C1237      C1238   1.422       .  A
C1238      C1239   1.509       .  S
C1239      H1243   1.111       .  S
C1239      H1244   1.110       .  S
C1239      H1245   1.110       .  S
C1242      H1246   1.110       .  S
C1242      H1247   1.110       .  S
C1242      H1248   1.111       .  S
C1249      C1250   1.404       .  A
C1249      C1254   1.405       .  A
C1249      H1256   1.086       .  S
C1250      C1251   1.419       .  A
C1251      C2692   1.405       .  A
C1251      C1258   1.509       .  S
C1252      C2691   1.405   1_455  A
C1252      C1253   1.405       .  A
C1252      H1257   1.086       .  S
C1253      C2694   1.421   1_455  A
C1254      C2693   1.421       .  A
C1254      C1255   1.509       .  S
C1255      H1259   1.111       .  S
C1255      H1260   1.110       .  S
C1255      H1261   1.111       .  S
C1258      H1262   1.110       .  S
C1258      H1263   1.110       .  S
C1258      H2704   1.111       .  S
H1264      C2698   1.111   1_455  S
C1265      C1266   1.402       .  A
C1265      C1270   1.404   1_556  A
C1265      H1272   1.086       .  S
C1266      C1267   1.415       .  A
C1267      C1268   1.403   1_556  A
C1267      C1274   1.508       .  S
C1268      C1269   1.404       .  A
C1268      H1273   1.086       .  S
C1269      C1270   1.419       .  A
C1270      C1271   1.508       .  S
C1271      H1275   1.111   1_554  S
C1271      H1276   1.109       .  S
C1271      H1277   1.110       .  S
C1274      H1278   1.109       .  S
C1274      H1279   1.110       .  S
C1274      H1280   1.111   1_556  S
C1281      C1282   1.403       .  A
C1281      C1286   1.403       .  A
C1281      H1288   1.083       .  S
C1282      C1283   1.420       .  A
C1283      C1284   1.407       .  A
C1283      C1290   1.508       .  S
C1284      C1285   1.406       .  A
C1284      H1289   1.083       .  S
C1285      C1286   1.421       .  A
C1286      C1287   1.509       .  S
C1287      H1291   1.111       .  S
C1287      H1292   1.110       .  S
C1287      H1293   1.110       .  S
C1290      H1294   1.111       .  S
C1290      H1295   1.110       .  S
C1290      H1296   1.111       .  S
C1297      C1298   1.404       .  A
C1297      C1302   1.405       .  A
C1297      H1304   1.085       .  S
C1298      C1299   1.420       .  A
C1299      C1300   1.405       .  A
C1299      C1306   1.508       .  S
C1300      C1301   1.405       .  A
C1300      H1305   1.085       .  S
C1301      C1302   1.421       .  A
C1302      C1303   1.509       .  S
C1303      H1307   1.111       .  S
C1303      H1308   1.110       .  S
C1303      H1309   1.110       .  S
C1306      H1310   1.110       .  S
C1306      H1311   1.110       .  S
C1306      H1312   1.111       .  S
C1313      C1314   1.405       .  A
C1313      C1318   1.404       .  A
C1313      H1320   1.085       .  S
C1314      C1315   1.420       .  A
C1315      C1316   1.405       .  A
C1315      C1322   1.509       .  S
C1316      C1317   1.403       .  A
C1316      H1321   1.085       .  S
C1317      C1318   1.415       .  A
C1318      C1319   1.508       .  S
C1319      H1323   1.111       .  S
C1319      H1324   1.109       .  S
C1319      H1325   1.110       .  S
C1322      H1326   1.109       .  S
C1322      H1327   1.110       .  S
C1322      H1328   1.111       .  S
C1329      C1330   1.406       .  A
C1329      C1334   1.406       .  A
C1329      H1336   1.083       .  S
C1330      C1331   1.420       .  A
C1331      C1332   1.403       .  A
C1331      C1338   1.509       .  S
C1332      C1333   1.401       .  A
C1332      H1337   1.084       .  S
C1333      C1334   1.416       .  A
C1334      C1335   1.508       .  S
C1335      H1339   1.111       .  S
C1335      H1340   1.111       .  S
C1335      H1341   1.109       .  S
C1338      H1342   1.110       .  S
C1338      H1343   1.111       .  S
C1338      H1344   1.111       .  S
C1345      C2786   1.408       .  A
C1345      C1350   1.406       .  A
C1345      H1352   1.082       .  S
C1346      C2785   1.408   1_455  A
C1346      C1347   1.418       .  A
C1347      C2788   1.405   1_455  A
C1347      C1354   1.508       .  S
C1348      C2787   1.405       .  A
C1348      C1349   1.407       .  A
C1348      H1353   1.082       .  S
C1349      C1350   1.417       .  A
C1350      C1351   1.508       .  S
C1351      H1355   1.111       .  S
C1351      H1356   1.110       .  S
C1351      H1357   1.110       .  S
C1354      H1358   1.110       .  S
C1354      H1359   1.110       .  S
C1354      H1360   1.111       .  S
C1361      C1362   1.407       .  A
C1361      C1366   1.405       .  A
C1361      H1368   1.082       .  S
C1362      C1363   1.419       .  A
C1363      C1364   1.406       .  A
C1363      C1370   1.509       .  S
C1364      C1365   1.407       .  A
C1364      H1369   1.081       .  S
C1365      C1366   1.418       .  A
C1366      C1367   1.508       .  S
C1367      H1371   1.111       .  S
C1367      H1372   1.110       .  S
C1367      H1373   1.110       .  S
C1370      H1374   1.110       .  S
C1370      H1375   1.110       .  S
C1370      H1376   1.111       .  S
C1377      C1378   1.407       .  A
C1377      C1382   1.405       .  A
C1377      H1384   1.080       .  S
C1378      C1379   1.416       .  A
C1379      C1380   1.404       .  A
C1379      C1386   1.508       .  S
C1380      C1381   1.407       .  A
C1380      H1385   1.080       .  S
C1381      C1382   1.419       .  A
C1382      C1383   1.508       .  S
C1383      H1387   1.110       .  S
C1383      H1388   1.110       .  S
C1383      H1389   1.110       .  S
C1386      H1390   1.111       .  S
C1386      H1391   1.110       .  S
C1386      H1392   1.110       .  S
C1393      C1394   1.409       .  A
C1393      C1398   1.409       .  A
C1393      H1400   1.081       .  S
C1394      C2835   1.418       .  A
C1395      C2834   1.418   1_455  A
C1395      C1396   1.405       .  A
C1395      C1402   1.509       .  S
C1396      C1397   1.407       .  A
C1396      H1401   1.081       .  S
C1397      C2838   1.418   1_455  A
C1398      C2837   1.418       .  A
C1398      C1399   1.508       .  S
C1399      H1403   1.111       .  S
C1399      H1404   1.110       .  S
C1399      H1405   1.110       .  S
C1402      H1406   1.110       .  S
C1402      H1407   1.110       .  S
C1402      H1408   1.111       .  S
C1409      C1414   1.409       .  A
C1409      H1416   1.081       .  S
C1410      C2851   1.418   1_455  A
C1411      C2850   1.418       .  A
C1411      C1412   1.403       .  A
C1411      C1418   1.509       .  S
C1412      H1417   1.081       .  S
C1413      C2854   1.418       .  A
C1414      C2853   1.418   1_455  A
C1414      C1415   1.508       .  S
C1415      H1419   1.111       .  S
C1415      H1420   1.110       .  S
C1415      H1421   1.110       .  S
C1418      H1422   1.110       .  S
C1418      H1423   1.110       .  S
C1418      H1424   1.111       .  S
C1425      C1426   1.405       .  A
C1425      C1430   1.404       .  A
C1425      H1432   1.085       .  S
C1426      C1427   1.417       .  A
C1427      C1428   1.405       .  A
C1427      C1434   1.508       .  S
C1428      C1429   1.405       .  A
C1428      H1433   1.085       .  S
C1429      C1430   1.416       .  A
C1430      C1431   1.508       .  S
C1431      H1435   1.111       .  S
C1431      H1436   1.110       .  S
C1431      H1437   1.110       .  S
C1434      H1438   1.110       .  S
C1434      H1439   1.110       .  S
C1434      H1440   1.111       .  S
O1441      C1444   1.266       .  A
O1441     Cd1446   2.460       .  S
C1442      O1451   1.264       .  A
C1442      O1447   1.267       .  A
C1442      C2117   1.496       .  S
O1443      C1449   1.266       .  A
O1443     Cd1446   2.470       .  S
C1444      O1452   1.267       .  A
C1444      C2130   1.495       .  S
C1445      O1450   1.266       .  A
C1445      O1448   1.265       .  A
C1445      C2146   1.487       .  S
Cd1446     O1453   2.455       .  S
Cd1446     O1452   2.479       .  S
Cd1446     O1451   2.445       .  S
Cd1446     O1447   2.501       .  S
Cd1446     O1450   2.483       .  S
Cd1446     O1448   2.451       .  S
C1449      O1453   1.265       .  A
C1449      C2098   1.489       .  S
O1454      C1457   1.267       .  A
O1454     Cd1459   2.461       .  S
C1455      O1464   1.264       .  A
C1455      O1460   1.266       .  A
C1455      C2066   1.493       .  S
O1456      C1462   1.268       .  A
O1456     Cd1459   2.463       .  S
C1457      O1465   1.266       .  A
C1457      C2085   1.493       .  S
C1458      O1463   1.266       .  A
C1458      O1461   1.265       .  A
C1458      C2149   1.487       .  S
Cd1459     O1466   2.452       .  S
Cd1459     O1465   2.457       .  S
Cd1459     O1464   2.463       .  S
Cd1459     O1460   2.480       .  S
Cd1459     O1463   2.478       .  S
Cd1459     O1461   2.451       .  S
C1462      O1466   1.264       .  A
C1462      C2053   1.481       .  S
O1467      C1470   1.267       .  A
O1467     Cd1472   2.477       .  S
C1468      O1477   1.267       .  A
C1468      O1473   1.266       .  A
C1468      C2082   1.493       .  S
O1469      C1475   1.268       .  A
O1469     Cd1472   2.485       .  S
C1470      O1478   1.265       .  A
C1470      C2069   1.490       .  S
C1471      O1476   1.269       .  A
C1471      O1474   1.262       .  A
C1471      C2021   1.493       .  S
Cd1472     O1479   2.448       .  S
Cd1472     O1478   2.445       .  S
Cd1472     O1477   2.456       .  S
Cd1472     O1473   2.465       .  S
Cd1472     O1476   2.486       .  S
Cd1472     O1474   2.440       .  S
C1475      O1479   1.263       .  A
C1475      C2037   1.483       .  S
O1480      C1483   1.266       .  A
O1480     Cd1485   2.470       .  S
C1481      O1490   1.265       .  A
C1481      O1486   1.267       .  A
C1481      C2133   1.494       .  S
O1482      C1488   1.268       .  A
O1482     Cd1485   2.484       .  S
C1483      O1491   1.266       .  A
C1483      C2114   1.497       .  S
C1484      O1489   1.268       .  A
C1484      O1487   1.262       .  A
C1484      C2005   1.494       .  S
Cd1485     O1492   2.443       .  S
Cd1485     O1491   2.475       .  S
Cd1485     O1490   2.442       .  S
Cd1485     O1486   2.486       .  S
Cd1485     O1489   2.494       .  S
Cd1485     O1487   2.434       .  S
C1488      O1492   1.263       .  A
C1488      C2034   1.488       .  S
O1493      C1496   1.270       .  A
O1493     Cd1498   2.479       .  S
C1494      O1503   1.263       .  A
C1494      O1499   1.269       .  A
C1494      C1954   1.496       .  S
O1495      C1501   1.267       .  A
O1495     Cd1498   2.475       .  S
C1496      O1504   1.264       .  A
C1496      C1973   1.492       .  S
C1497      O1502   1.269       .  A
C1497      O1500   1.264       .  A
C1497      C1989   1.485       .  S
Cd1498     O1505   2.453       .  S
Cd1498     O1504   2.440       .  S
Cd1498     O1503   2.454       .  S
Cd1498     O1499   2.486       .  S
Cd1498     O1502   2.481       .  S
Cd1498     O1500   2.437       .  S
C1501      O1505   1.265       .  A
C1501      C1938   1.491       .  S
O1506      C1509   1.269       .  A
O1506     Cd1511   2.495       .  S
C1507      O1516   1.263       .  A
C1507      O1512   1.269       .  A
C1507      C1925   1.493       .  S
O1508      C1514   1.267       .  A
O1508     Cd1511   2.480       .  S
C1509      O1517   1.262       .  A
C1509      C1906   1.494       .  S
C1510      O1515   1.266       .  A
C1510      O1513   1.266       .  A
C1510      C2101   1.492       .  S
Cd1511     O1518   2.433       .  S
Cd1511     O1517   2.449       .  S
Cd1511     O1516   2.443       .  S
Cd1511     O1512   2.485       .  S
Cd1511     O1515   2.464       .  S
Cd1511     O1513   2.453       .  S
C1514      O1518   1.263       .  A
C1514      C1986   1.479       .  S
O1519      C1522   1.270       .  A
O1519     Cd1524   2.500       .  S
C1520      O1529   1.265       .  A
C1520      O1525   1.271       .  A
C1520      C1922   1.493       .  S
O1521      C1527   1.268       .  A
O1521     Cd1524   2.480       .  S
C1522      O1530   1.262       .  A
C1522      C1909   1.496       .  S
C1523      O1528   1.269       .  A
C1523      O1526   1.264       .  A
C1523      C2002   1.492       .  S
Cd1524     O1531   2.458       .  S
Cd1524     O1530   2.450       .  S
Cd1524     O1529   2.443       .  S
Cd1524     O1525   2.474       .  S
Cd1524     O1528   2.471       .  S
Cd1524     O1526   2.459       .  S
C1527      O1531   1.265       .  A
C1527      C1890   1.491       .  S
O1532      C1535   1.269       .  A
O1532     Cd1537   2.497       .  S
C1533      O1542   1.264       .  A
C1533      O1538   1.269       .  A
C1533      C1970   1.491       .  S
O1534      C1540   1.267       .  A
O1534     Cd1537   2.491       .  S
C1535      O1543   1.262       .  A
C1535      C1957   1.496       .  S
C1536      O1541   1.268       .  A
C1536      O1539   1.264       .  A
C1536      C1874   1.491       .  S
Cd1537     O1544   2.451       .  S
Cd1537     O1543   2.446       .  S
Cd1537     O1542   2.447       .  S
Cd1537     O1538   2.481       .  S
Cd1537     O1541   2.474       .  S
Cd1537     O1539   2.460       .  S
C1540      O1544   1.265       .  A
C1540      C1893   1.488       .  S
O1545      C1548   1.267       .  A
O1545     Cd1550   2.496       .  S
C1546      O1555   1.265       .  A
C1546      O1551   1.269       .  A
C1546      C1842   1.494       .  S
O1547      C1553   1.265       .  A
O1547     Cd1550   2.472       .  S
C1548      O1556   1.263       .  A
C1548      C1826   1.494       .  S
C1549      O1554   1.266       .  A
C1549      O1552   1.266       .  A
C1549      C1810   1.489       .  S
Cd1550     O1557   2.453       .  S
Cd1550     O1556   2.443       .  S
Cd1550     O1555   2.466       .  S
Cd1550     O1551   2.468       .  S
Cd1550     O1554   2.465       .  S
Cd1550     O1552   2.447       .  S
C1553      O1557   1.264       .  A
C1553      C1861   1.477       .  S
O1558      C1561   1.266       .  A
O1558     Cd1563   2.464       .  S
C1559      O1568   1.265       .  A
C1559      O1564   1.266       .  A
C1559      C1778   1.491       .  S
O1560      C1566   1.269       .  A
O1560     Cd1563   2.497       .  S
C1561      O1569   1.266       .  A
C1561      C1794   1.490       .  S
C1562      O1567   1.268       .  A
C1562      O1565   1.265       .  A
C1562      C1858   1.487       .  S
Cd1563     O1570   2.446       .  S
Cd1563     O1569   2.449       .  S
Cd1563     O1568   2.459       .  S
Cd1563     O1564   2.468       .  S
Cd1563     O1567   2.478       .  S
Cd1563     O1565   2.433       .  S
C1566      O1570   1.263       .  A
C1566      C1877   1.493       .  S
O1571      C1574   1.268       .  A
O1571     Cd1576   2.486       .  S
C1572      O1581   1.266       .  A
C1572      O1577   1.268       .  A
C1572      C1829   1.491       .  S
O1573      C1579   1.269       .  A
O1573     Cd1576   2.479       .  S
C1574      O1582   1.264       .  A
C1574      C1845   1.496       .  S
C1575      O1580   1.268       .  A
C1575      O1578   1.263       .  A
C1575      C1765   1.472       .  S
Cd1576     O1583   2.441       .  S
Cd1576     O1582   2.456       .  S
Cd1576     O1581   2.447       .  S
Cd1576     O1577   2.469       .  S
Cd1576     O1580   2.500       .  S
Cd1576     O1578   2.416       .  S
C1579      O1583   1.263       .  A
C1579      C1746   1.490       .  S
O1584      C1587   1.266       .  A
O1584     Cd1589   2.453       .  S
C1585      O1594   1.266       .  A
C1585      O1590   1.267       .  A
C1585      C1781   1.493       .  S
O1586      C1592   1.268       .  A
O1586     Cd1589   2.481       .  S
C1587      O1595   1.266       .  A
C1587      C1797   1.482       .  S
C1588      O1593   1.269       .  A
C1588      O1591   1.263       .  A
C1588      C1762   1.483       .  S
Cd1589     O1596   2.444       .  S
Cd1589     O1595   2.444       .  S
Cd1589     O1594   2.448       .  S
Cd1589     O1590   2.470       .  S
Cd1589     O1593   2.500       .  S
Cd1589     O1591   2.409       .  S
C1592      O1596   1.265       .  A
C1592      C1941   1.493       .  S
O1597      C1600   1.269       .  A
O1597     Cd1602   2.500       .  S
C1598      O1607   1.265       .  A
C1598      O1603   1.269       .  A
C1598      C1717   1.494       .  S
O1599      C1605   1.267       .  A
O1599     Cd1602   2.480       .  S
C1600      O1608   1.261       .  A
C1600      C1698   1.495       .  S
C1601      O1606   1.266       .  A
C1601      O1604   1.265       .  A
C1601      C1813   1.490       .  S
Cd1602     O1609   2.450       .  S
Cd1602     O1608   2.442       .  S
Cd1602     O1607   2.456       .  S
Cd1602     O1603   2.479       .  S
Cd1602     O1606   2.472       .  S
Cd1602     O1604   2.457       .  S
C1605      O1609   1.265       .  A
C1605      C1730   1.485       .  S
O1610      C1613   1.267       .  A
O1610     Cd1615   2.474       .  S
C1611      O1620   1.263       .  A
C1611      O1616   1.268       .  A
C1611      C1666   1.490       .  S
O1612      C1618   1.269       .  A
O1612     Cd1615   2.476       .  S
C1613      O1621   1.266       .  A
C1613      C1682   1.495       .  S
C1614      O1619   1.267       .  A
C1614      O1617   1.264       .  A
C1614      C1733   1.489       .  S
Cd1615     O1622   2.452       .  S
Cd1615     O1621   2.457       .  S
Cd1615     O1620   2.448       .  S
Cd1615     O1616   2.492       .  S
Cd1615     O1619   2.492       .  S
Cd1615     O1617   2.449       .  S
C1618      O1622   1.264       .  A
C1618      C2018   1.492       .  S
O1623      C1626   1.269       .  A
O1623     Cd1628   2.479       .  S
C1624      O1633   1.266       .  A
C1624      O1629   1.267       .  A
C1624      C1685   1.495       .  S
O1625      C1631   1.268       .  A
O1625     Cd1628   2.482       .  S
C1626      O1634   1.263       .  A
C1626      C1669   1.492       .  S
C1627      O1632   1.269       .  A
C1627      O1630   1.263       .  A
C1627      C2050   1.488       .  S
Cd1628     O1635   2.423       .  S
Cd1628     O1634   2.457       .  S
Cd1628     O1633   2.452       .  S
Cd1628     O1629   2.478       .  S
Cd1628     O1632   2.485       .  S
Cd1628     O1630   2.433       .  S
C1631      O1635   1.262       .  A
C1631      C1650   1.479       .  S
O1636      C1639   1.269       .  A
O1636     Cd1641   2.492       .  S
C1637      O1646   1.264       .  A
C1637      O1642   1.270       .  A
C1637      C1714   1.495       .  S
O1638      C1644   1.269       .  A
O1638     Cd1641   2.476       .  S
C1639      O1647   1.263       .  A
C1639      C1701   1.494       .  S
C1640      O1645   1.269       .  A
C1640      O1643   1.263       .  A
C1640      C1749   1.491       .  S
Cd1641     O1648   2.431       .  S
Cd1641     O1647   2.452       .  S
Cd1641     O1646   2.454       .  S
Cd1641     O1642   2.474       .  S
Cd1641     O1645   2.478       .  S
Cd1641     O1643   2.436       .  S
C1644      O1648   1.263       .  A
C1644      C1653   1.481       .  S
C1649      C1650   1.402       .  A
C1649      C1654   1.403       .  A
C1649      H1656   1.086       .  S
C1650      C1651   1.416       .  A
C1651      C1652   1.403       .  A
C1651      C1658   1.509       .  S
C1652      C1653   1.403       .  A
C1652      H1657   1.086       .  S
C1653      C1654   1.418       .  A
C1654      C1655   1.508       .  S
C1655      H1659   1.111       .  S
C1655      H1660   1.109       .  S
C1655      H1661   1.110       .  S
C1658      H1662   1.109       .  S
C1658      H1663   1.110       .  S
C1658      H1664   1.111       .  S
C1665      C2386   1.404   1_545  A
C1665      C1670   1.407       .  A
C1665      H1672   1.085       .  S
C1666      C2385   1.404       .  A
C1666      C1667   1.419       .  A
C1667      C1674   1.509       .  S
C1668      C2389   1.404       .  A
C1668      H1673   1.085       .  S
C1669      C2388   1.404   1_545  A
C1670      C1671   1.508       .  S
C1671      H1675   1.111       .  S
C1671      H1676   1.110       .  S
C1671      H1677   1.110   1_655  S
C1674      H1678   1.111       .  S
C1674      H1679   1.109       .  S
C1681      C1682   1.408       .  A
C1681      C1686   1.406       .  A
C1681      H1688   1.082       .  S
C1682      C2403   1.418       .  A
C1683      C2402   1.418   1_545  A
C1683      C1684   1.406       .  A
C1683      C1690   1.508       .  S
C1684      C1685   1.408       .  A
C1684      H1689   1.082       .  S
C1685      C2406   1.418   1_545  A
C1686      C2405   1.418       .  A
C1686      C1687   1.508       .  S
C1687      H1691   1.111       .  S
C1687      H1692   1.110       .  S
C1687      H1693   1.110       .  S
C1690      H1694   1.110       .  S
C1690      H1695   1.110       .  S
C1690      H1696   1.111       .  S
C1697      C2422   1.406       .  A
C1697      H1704   1.085       .  S
C1698      C1699   1.422       .  A
C1699      C2420   1.406       .  A
C1699      C2426   1.509       .  S
C1700      C2419   1.406   1_545  A
C1700      H1705   1.085       .  S
C1701      C1702   1.421   1_545  A
C1702      C2417   1.406       .  A
C1702      C1703   1.509       .  S
C1703      H2427   1.111       .  S
C1703      H1708   1.110   1_565  S
C1703      H1709   1.110   1_565  S
C1706      C2419   1.509       .  S
C1706      H2430   1.110       .  S
C1706      H2431   1.110       .  S
C1706      H1712   1.111   1_565  S
H1707      C2423   1.111       .  S
H1710      C2426   1.110       .  S
H1711      C2426   1.110       .  S
C1713      C1718   1.405       .  A
C1713      H1720   1.085       .  S
C1714      C1715   1.421       .  A
C1715      C1716   1.406       .  A
C1715      C1722   1.509       .  S
C1716      H1721   1.085       .  S
C1717      C1718   1.420       .  A
C1718      C1719   1.508       .  S
C1719      H1723   1.111       .  S
C1719      H1724   1.110       .  S
C1719      H1725   1.110       .  S
C1722      H1726   1.110       .  S
C1722      H1727   1.110       .  S
C1722      H1728   1.111       .  S
C1729      C1730   1.405       .  A
C1729      C1734   1.406       .  A
C1729      H1736   1.083       .  S
C1730      C1731   1.415       .  A
C1731      C1732   1.405       .  A
C1731      C1738   1.508       .  S
C1732      C1733   1.406       .  A
C1732      H1737   1.083       .  S
C1733      C1734   1.417       .  A
C1734      C1735   1.507       .  S
C1735      H1739   1.111       .  S
C1735      H1740   1.110       .  S
C1735      H1741   1.110       .  S
C1738      H1742   1.110       .  S
C1738      H1743   1.111       .  S
C1738      H1744   1.111       .  S
C1745      C1746   1.404       .  A
C1745      C1750   1.404       .  A
C1745      H1752   1.083       .  S
C1746      C1747   1.420       .  A
C1747      C1748   1.405       .  A
C1747      C1754   1.509       .  S
C1748      C1749   1.405       .  A
C1748      H1753   1.082       .  S
C1749      C1750   1.421       .  A
C1750      C1751   1.509       .  S
C1751      H1755   1.111       .  S
C1751      H1756   1.110       .  S
C1751      H1757   1.111       .  S
C1754      H1758   1.110       .  S
C1754      H1759   1.110       .  S
C1754      H1760   1.111       .  S
C1761      C1762   1.404       .  A
C1761      C1766   1.397       .  A
C1761      H1768   1.083       .  S
C1762      C1763   1.417       .  A
C1763      C1764   1.411       .  A
C1763      C1770   1.506       .  S
C1764      C1765   1.403       .  A
C1764      H1769   1.082       .  S
C1765      C1766   1.410       .  A
C1766      C1767   1.510       .  S
C1767      H1771   1.111       .  S
C1767      H1772   1.111       .  S
C1767      H1773   1.109       .  S
C1770      H1774   1.111       .  S
C1770      H1775   1.109       .  S
C1770      H1776   1.111       .  S
C1777      C1778   1.407       .  A
C1777      C1782   1.406       .  A
C1777      H1784   1.081       .  S
C1778      C2499   1.417       .  A
C1779      C2498   1.417   1_545  A
C1779      C1780   1.404       .  A
C1779      C1786   1.508       .  S
C1780      C1781   1.407       .  A
C1780      H1785   1.082       .  S
C1781      C2502   1.418   1_545  A
C1782      C2501   1.418       .  A
C1782      C1783   1.508       .  S
C1783      H1787   1.111       .  S
C1783      H1788   1.110       .  S
C1783      H1789   1.110       .  S
C1786      H1790   1.110       .  S
C1786      H1791   1.110       .  S
C1786      H1792   1.111       .  S
C1793      C1794   1.407       .  A
C1793      H1800   1.085       .  S
C1794      C2515   1.419       .  A
C1795      C2514   1.419   1_545  A
C1795      C1796   1.403       .  A
C1795      C1802   1.508       .  S
C1796      H1801   1.086       .  S
C1797      C2518   1.415   1_545  A
C1798      C2517   1.415       .  A
C1798      C1799   1.509       .  S
C1799      H1803   1.111       .  S
C1799      H1804   1.110       .  S
C1799      H1805   1.109       .  S
C1802      H1806   1.110       .  S
C1802      H1807   1.110       .  S
C1802      H1808   1.111       .  S
C1809      C1810   1.407       .  A
C1809      C1814   1.405       .  A
C1809      H1816   1.080       .  S
C1810      C1811   1.417       .  A
C1811      C1812   1.405       .  A
C1811      C1818   1.508       .  S
C1812      C1813   1.407       .  A
C1812      H1817   1.080       .  S
C1813      C1814   1.417       .  A
C1814      C1815   1.508       .  S
C1815      H1819   1.110       .  S
C1815      H1820   1.110       .  S
C1815      H1821   1.111       .  S
C1818      H1822   1.110       .  S
C1818      H1823   1.110       .  S
C1818      H1824   1.110       .  S
C1825      C1826   1.408       .  A
C1825      C2550   1.404       .  A
C1825      H1832   1.082       .  S
C1826      C1827   1.418       .  A
C1827      C2548   1.406       .  A
C1827      C1834   1.508       .  S
C1828      C2547   1.406   1_545  A
C1828      C1829   1.408       .  A
C1828      H1833   1.082       .  S
C1829      C1830   1.416       .  A
C1830      C2545   1.404   1_545  A
C1830      C1831   1.508       .  S
C1831      H1835   1.111       .  S
C1831      H1836   1.110       .  S
C1831      H1837   1.110       .  S
C1834      H1838   1.110       .  S
C1834      H1839   1.110       .  S
C1834      H1840   1.111       .  S
C1841      C1842   1.404       .  A
C1841      C1846   1.405       .  A
C1841      H1848   1.084       .  S
C1842      C1843   1.420       .  A
C1843      C1844   1.407       .  A
C1843      C1850   1.508       .  S
C1844      C1845   1.407       .  A
C1844      H1849   1.084       .  S
C1845      C1846   1.421       .  A
C1846      C1847   1.509       .  S
C1847      H1851   1.111       .  S
C1847      H1852   1.110       .  S
C1847      H1853   1.110       .  S
C1850      H1854   1.110       .  S
C1850      H1855   1.110       .  S
C1850      H1856   1.111       .  S
C1857      C1858   1.408       .  A
C1857      C1862   1.403       .  A
C1857      H1864   1.082       .  S
C1858      C1859   1.418       .  A
C1859      C1860   1.405       .  A
C1859      C1866   1.507       .  S
C1860      C1861   1.402       .  A
C1860      H1865   1.083       .  S
C1861      C1862   1.412       .  A
C1862      C1863   1.508       .  S
C1863      H1867   1.111       .  S
C1863      H1868   1.110       .  S
C1863      H1869   1.111       .  S
C1866      H1870   1.110       .  S
C1866      H1871   1.110       .  S
C1866      H1872   1.111       .  S
C1873      C1874   1.403       .  A
C1873      C1878   1.404       .  A
C1873      H1880   1.085       .  S
C1874      C1875   1.419       .  A
C1875      C1876   1.407       .  A
C1875      C1882   1.508       .  S
C1876      C1877   1.405       .  A
C1876      H1881   1.085       .  S
C1877      C1878   1.420       .  A
C1878      C1879   1.509       .  S
C1879      H1883   1.111       .  S
C1879      H1884   1.110       .  S
C1879      H1885   1.110       .  S
C1882      H1886   1.111       .  S
C1882      H1887   1.109       .  S
C1882      H1888   1.111       .  S
C1889      C1890   1.407       .  A
C1889      C1894   1.407   1_556  A
C1889      H1896   1.083       .  S
C1890      C1891   1.417       .  A
C1891      C1892   1.405   1_556  A
C1891      C1898   1.508       .  S
C1892      C1893   1.405       .  A
C1892      H1897   1.083       .  S
C1893      C1894   1.416       .  A
C1894      C1895   1.507       .  S
C1895      H1899   1.111       .  S
C1895      H1900   1.110       .  S
C1895      H1901   1.110       .  S
C1898      H1902   1.110       .  S
C1898      H1903   1.110       .  S
C1898      H1904   1.111       .  S
C1905      C1906   1.404       .  A
C1905      C1910   1.406       .  A
C1905      H1912   1.085       .  S
C1906      C1907   1.421       .  A
C1907      C1908   1.406       .  A
C1907      C1914   1.509       .  S
C1908      C1909   1.405       .  A
C1908      H1913   1.084       .  S
C1909      C1910   1.422       .  A
C1910      C1911   1.509       .  S
C1911      H1915   1.111       .  S
C1911      H1916   1.111       .  S
C1911      H1917   1.110       .  S
C1914      H1918   1.110       .  S
C1914      H1919   1.110       .  S
C1914      H1920   1.111       .  S
C1921      C1922   1.404       .  A
C1921      C1926   1.405       .  A
C1921      H1928   1.085       .  S
C1922      C2643   1.421       .  A
C1923      C2642   1.421   1_545  A
C1923      C1924   1.406       .  A
C1923      C1930   1.509   1_545  S
C1924      C1925   1.405       .  A
C1924      H1929   1.085       .  S
C1925      C2646   1.421       .  A
C1926      C2645   1.421       .  A
C1926      C1927   1.509       .  S
C1927      H1931   1.111       .  S
C1927      H2652   1.110       .  S
C1927      H2653   1.111       .  S
C1930      H2654   1.110       .  S
C1930      H2655   1.110       .  S
C1930      H1936   1.111   1_565  S
H1932      C2647   1.110       .  S
H1933      C2647   1.111       .  S
H1934      C2650   1.110       .  S
H1935      C2650   1.110       .  S
C1937      C1938   1.407       .  A
C1937      C1942   1.406       .  A
C1937      H1944   1.086       .  S
C1938      C1939   1.417       .  A
C1939      C1940   1.404       .  A
C1939      C1946   1.508       .  S
C1940      C1941   1.407       .  A
C1940      H1945   1.086       .  S
C1941      C1942   1.418       .  A
C1942      C1943   1.508       .  S
C1943      H1947   1.111       .  S
C1943      H1948   1.110       .  S
C1943      H1949   1.110       .  S
C1946      H1950   1.110       .  S
C1946      H1951   1.110       .  S
C1946      H1952   1.111       .  S
C1953      C1954   1.404       .  A
C1953      C1958   1.405       .  A
C1953      H1960   1.085       .  S
C1954      C1955   1.422       .  A
C1955      C1956   1.407       .  A
C1955      C1962   1.509       .  S
C1956      C1957   1.405       .  A
C1956      H1961   1.085       .  S
C1957      C1958   1.422       .  A
C1958      C1959   1.509       .  S
C1959      H1963   1.111       .  S
C1959      H1964   1.110       .  S
C1959      H1965   1.110       .  S
C1962      H1966   1.110       .  S
C1962      H1967   1.110       .  S
C1962      H1968   1.111       .  S
C1969      C1970   1.404       .  A
C1969      C1974   1.405       .  A
C1969      H1976   1.086       .  S
C1970      C1971   1.419       .  A
C1971      C1978   1.509       .  S
C1972      C1973   1.405       .  A
C1972      H1977   1.086       .  S
C1974      C1975   1.509       .  S
C1975      H1979   1.111       .  S
C1975      H1980   1.110       .  S
C1975      H1981   1.111   1_655  S
C1978      H1982   1.110       .  S
C1978      H1983   1.110       .  S
C1985      C1986   1.402       .  A
C1985      C1990   1.404   1_556  A
C1985      H1992   1.086       .  S
C1986      C1987   1.415       .  A
C1987      C1988   1.403   1_556  A
C1987      C1994   1.508       .  S
C1988      C1989   1.404       .  A
C1988      H1993   1.086       .  S
C1989      C1990   1.419       .  A
C1990      C1991   1.508       .  S
C1991      H1995   1.111   1_554  S
C1991      H1996   1.109       .  S
C1991      H1997   1.110       .  S
C1994      H1998   1.109       .  S
C1994      H1999   1.110       .  S
C1994      H2000   1.111   1_556  S
C2001      C2002   1.403       .  A
C2001      C2006   1.403       .  A
C2001      H2008   1.083       .  S
C2002      C2003   1.420       .  A
C2003      C2004   1.407       .  A
C2003      C2010   1.508       .  S
C2004      C2005   1.406       .  A
C2004      H2009   1.083       .  S
C2005      C2006   1.421       .  A
C2006      C2007   1.509       .  S
C2007      H2011   1.111       .  S
C2007      H2012   1.110       .  S
C2007      H2013   1.110       .  S
C2010      H2014   1.111       .  S
C2010      H2015   1.110       .  S
C2010      H2016   1.111       .  S
C2017      C2018   1.404       .  A
C2017      C2022   1.405       .  A
C2017      H2024   1.085       .  S
C2018      C2019   1.420       .  A
C2019      C2020   1.405       .  A
C2019      C2026   1.508       .  S
C2020      C2021   1.405       .  A
C2020      H2025   1.085       .  S
C2021      C2022   1.421       .  A
C2022      C2023   1.509       .  S
C2023      H2027   1.111       .  S
C2023      H2028   1.110       .  S
C2023      H2029   1.110       .  S
C2026      H2030   1.110       .  S
C2026      H2031   1.110       .  S
C2026      H2032   1.111       .  S
C2033      C2034   1.405       .  A
C2033      C2038   1.404       .  A
C2033      H2040   1.085       .  S
C2034      C2035   1.420       .  A
C2035      C2036   1.405       .  A
C2035      C2042   1.509       .  S
C2036      C2037   1.403       .  A
C2036      H2041   1.085       .  S
C2037      C2038   1.415       .  A
C2038      C2039   1.508       .  S
C2039      H2043   1.111       .  S
C2039      H2044   1.109       .  S
C2039      H2045   1.110       .  S
C2042      H2046   1.109       .  S
C2042      H2047   1.110       .  S
C2042      H2048   1.111       .  S
C2049      C2050   1.406       .  A
C2049      C2054   1.406       .  A
C2049      H2056   1.083       .  S
C2050      C2051   1.420       .  A
C2051      C2052   1.403       .  A
C2051      C2058   1.509       .  S
C2052      C2053   1.401       .  A
C2052      H2057   1.084       .  S
C2053      C2054   1.416       .  A
C2054      C2055   1.508       .  S
C2055      H2059   1.111       .  S
C2055      H2060   1.111       .  S
C2055      H2061   1.109       .  S
C2058      H2062   1.110       .  S
C2058      H2063   1.111       .  S
C2058      H2064   1.111       .  S
C2065      C2070   1.406       .  A
C2065      H2072   1.082       .  S
C2066      C2067   1.418       .  A
C2067      C2074   1.508       .  S
C2068      C2069   1.407       .  A
C2068      H2073   1.082       .  S
C2069      C2070   1.417       .  A
C2070      C2071   1.508       .  S
C2071      H2075   1.111       .  S
C2071      H2076   1.110       .  S
C2071      H2077   1.110       .  S
C2074      H2078   1.110       .  S
C2074      H2079   1.110       .  S
C2074      H2080   1.111       .  S
C2081      C2082   1.407       .  A
C2081      C2086   1.405       .  A
C2081      H2088   1.082       .  S
C2082      C2083   1.419       .  A
C2083      C2084   1.406       .  A
C2083      C2090   1.509       .  S
C2084      C2085   1.407       .  A
C2084      H2089   1.081       .  S
C2085      C2086   1.418       .  A
C2086      C2087   1.508       .  S
C2087      H2091   1.111       .  S
C2087      H2092   1.110       .  S
C2087      H2093   1.110       .  S
C2090      H2094   1.110       .  S
C2090      H2095   1.110       .  S
C2090      H2096   1.111       .  S
C2097      C2098   1.407       .  A
C2097      C2102   1.405       .  A
C2097      H2104   1.080       .  S
C2098      C2099   1.416       .  A
C2099      C2100   1.404       .  A
C2099      C2106   1.508       .  S
C2100      C2101   1.407       .  A
C2100      H2105   1.080       .  S
C2101      C2102   1.419       .  A
C2102      C2103   1.508       .  S
C2103      H2107   1.110       .  S
C2103      H2108   1.110       .  S
C2103      H2109   1.110       .  S
C2106      H2110   1.111       .  S
C2106      H2111   1.110       .  S
C2106      H2112   1.110       .  S
C2113      C2114   1.409       .  A
C2113      C2118   1.409       .  A
C2113      H2120   1.081       .  S
C2115      C2116   1.405       .  A
C2115      C2122   1.509       .  S
C2116      C2117   1.407       .  A
C2116      H2121   1.081       .  S
C2118      C2119   1.508       .  S
C2119      H2123   1.111       .  S
C2119      H2124   1.110       .  S
C2119      H2125   1.110       .  S
C2122      H2126   1.110       .  S
C2122      H2127   1.110       .  S
C2122      H2128   1.111       .  S
C2129      C2850   1.409       .  A
C2129      C2134   1.409       .  A
C2129      H2136   1.081       .  S
C2130      C2849   1.409   1_545  A
C2131      C2132   1.403   1_545  A
C2131      C2138   1.509       .  S
C2132      C2853   1.406       .  A
C2132      H2137   1.081       .  S
C2133      C2852   1.406       .  A
C2134      C2135   1.508       .  S
C2135      H2139   1.111       .  S
C2135      H2140   1.110       .  S
C2135      H2141   1.110       .  S
C2138      H2142   1.110       .  S
C2138      H2143   1.110       .  S
C2138      H2144   1.111       .  S
C2145      C2146   1.405       .  A
C2145      C2150   1.404       .  A
C2145      H2152   1.085       .  S
C2146      C2147   1.417       .  A
C2147      C2148   1.405       .  A
C2147      C2154   1.508       .  S
C2148      C2149   1.405       .  A
C2148      H2153   1.085       .  S
C2149      C2150   1.416       .  A
C2150      C2151   1.508       .  S
C2151      H2155   1.111       .  S
C2151      H2156   1.110       .  S
C2151      H2157   1.110       .  S
C2154      H2158   1.110       .  S
C2154      H2159   1.110       .  S
C2154      H2160   1.111       .  S
O2161      C2164   1.266       .  A
O2161     Cd2166   2.460       .  S
C2162      O2171   1.264       .  A
C2162      O2167   1.267       .  A
C2162      C2837   1.496       .  S
O2163      C2169   1.266       .  A
O2163     Cd2166   2.470       .  S
C2164      O2172   1.267       .  A
C2164      C2850   1.495       .  S
C2165      O2170   1.266       .  A
C2165      O2168   1.265       .  A
C2165      C2866   1.487       .  S
Cd2166     O2173   2.455       .  S
Cd2166     O2172   2.479       .  S
Cd2166     O2171   2.445       .  S
Cd2166     O2167   2.501       .  S
Cd2166     O2170   2.483       .  S
Cd2166     O2168   2.451       .  S
C2169      O2173   1.265       .  A
C2169      C2818   1.489       .  S
O2174      C2177   1.267       .  A
O2174     Cd2179   2.461       .  S
C2175      O2184   1.264       .  A
C2175      O2180   1.266       .  A
C2175      C2786   1.493       .  S
O2176      C2182   1.268       .  A
O2176     Cd2179   2.464       .  S
C2177      O2185   1.266       .  A
C2177      C2805   1.493       .  S
C2178      O2183   1.266       .  A
C2178      O2181   1.265       .  A
C2178      C2869   1.487       .  S
Cd2179     O2186   2.452       .  S
Cd2179     O2185   2.457       .  S
Cd2179     O2184   2.463       .  S
Cd2179     O2180   2.480       .  S
Cd2179     O2183   2.478       .  S
Cd2179     O2181   2.451       .  S
C2182      O2186   1.264       .  A
C2182      C2773   1.481       .  S
O2187      C2190   1.267       .  A
O2187     Cd2192   2.477       .  S
C2188      O2197   1.267       .  A
C2188      O2193   1.266       .  A
C2188      C2802   1.493       .  S
O2189      C2195   1.268       .  A
O2189     Cd2192   2.485       .  S
C2190      O2198   1.265       .  A
C2190      C2789   1.490       .  S
C2191      O2196   1.269       .  A
C2191      O2194   1.262       .  A
C2191      C2741   1.493       .  S
Cd2192     O2199   2.448       .  S
Cd2192     O2198   2.445       .  S
Cd2192     O2197   2.456       .  S
Cd2192     O2193   2.465       .  S
Cd2192     O2196   2.486       .  S
Cd2192     O2194   2.440       .  S
C2195      O2199   1.263       .  A
C2195      C2757   1.483       .  S
O2200      C2203   1.266       .  A
O2200     Cd2205   2.470       .  S
C2201      O2210   1.265       .  A
C2201      O2206   1.267       .  A
C2201      C2853   1.494       .  S
O2202      C2208   1.268       .  A
O2202     Cd2205   2.484       .  S
C2203      O2211   1.266       .  A
C2203      C2834   1.497       .  S
C2204      O2209   1.268       .  A
C2204      O2207   1.262       .  A
C2204      C2725   1.494       .  S
Cd2205     O2212   2.443       .  S
Cd2205     O2211   2.475       .  S
Cd2205     O2210   2.442       .  S
Cd2205     O2206   2.486       .  S
Cd2205     O2209   2.494       .  S
Cd2205     O2207   2.434       .  S
C2208      O2212   1.263       .  A
C2208      C2754   1.488       .  S
O2213      C2216   1.270       .  A
O2213     Cd2218   2.479       .  S
C2214      O2223   1.263       .  A
C2214      O2219   1.269       .  A
C2214      C2674   1.496       .  S
O2215      C2221   1.267       .  A
O2215     Cd2218   2.475       .  S
C2216      O2224   1.264       .  A
C2216      C2693   1.492       .  S
C2217      O2222   1.269       .  A
C2217      O2220   1.264       .  A
C2217      C2709   1.485       .  S
Cd2218     O2225   2.453       .  S
Cd2218     O2224   2.440       .  S
Cd2218     O2223   2.454       .  S
Cd2218     O2219   2.486       .  S
Cd2218     O2222   2.482       .  S
Cd2218     O2220   2.437       .  S
C2221      O2225   1.265       .  A
C2221      C2658   1.491       .  S
O2226      C2229   1.269       .  A
O2226     Cd2231   2.495       .  S
C2227      O2236   1.263       .  A
C2227      O2232   1.269       .  A
C2227      C2645   1.493       .  S
O2228      C2234   1.267       .  A
O2228     Cd2231   2.480       .  S
C2229      O2237   1.262       .  A
C2229      C2626   1.494       .  S
C2230      O2235   1.266       .  A
C2230      O2233   1.266       .  A
C2230      C2821   1.492       .  S
Cd2231     O2238   2.433       .  S
Cd2231     O2237   2.449       .  S
Cd2231     O2236   2.443       .  S
Cd2231     O2232   2.485       .  S
Cd2231     O2235   2.465       .  S
Cd2231     O2233   2.453       .  S
C2234      O2238   1.263       .  A
C2234      C2706   1.479       .  S
O2239      C2242   1.270       .  A
O2239     Cd2244   2.500       .  S
C2240      O2249   1.265       .  A
C2240      O2245   1.271       .  A
C2240      C2642   1.493       .  S
O2241      C2247   1.268       .  A
O2241     Cd2244   2.480       .  S
C2242      O2250   1.262       .  A
C2242      C2629   1.496       .  S
C2243      O2248   1.269       .  A
C2243      O2246   1.264       .  A
C2243      C2722   1.492       .  S
Cd2244     O2251   2.458       .  S
Cd2244     O2250   2.450       .  S
Cd2244     O2249   2.443       .  S
Cd2244     O2245   2.474       .  S
Cd2244     O2248   2.471       .  S
Cd2244     O2246   2.459       .  S
C2247      O2251   1.265       .  A
C2247      C2610   1.491       .  S
O2252      C2255   1.269       .  A
O2252     Cd2257   2.497       .  S
C2253      O2262   1.264       .  A
C2253      O2258   1.269       .  A
C2253      C2690   1.491       .  S
O2254      C2260   1.267       .  A
O2254     Cd2257   2.491       .  S
C2255      O2263   1.262       .  A
C2255      C2677   1.496       .  S
C2256      O2261   1.268       .  A
C2256      O2259   1.264       .  A
C2256      C2594   1.491       .  S
Cd2257     O2264   2.451       .  S
Cd2257     O2263   2.446       .  S
Cd2257     O2262   2.447       .  S
Cd2257     O2258   2.481       .  S
Cd2257     O2261   2.474       .  S
Cd2257     O2259   2.460       .  S
C2260      O2264   1.265       .  A
C2260      C2613   1.488       .  S
O2265      C2268   1.267       .  A
O2265     Cd2270   2.496       .  S
C2266      O2275   1.265       .  A
C2266      O2271   1.269       .  A
C2266      C2562   1.494       .  S
O2267      C2273   1.265       .  A
O2267     Cd2270   2.472       .  S
C2268      O2276   1.263       .  A
C2268      C2546   1.494       .  S
C2269      O2274   1.266       .  A
C2269      O2272   1.266       .  A
C2269      C2530   1.489       .  S
Cd2270     O2277   2.453       .  S
Cd2270     O2276   2.443       .  S
Cd2270     O2275   2.466       .  S
Cd2270     O2271   2.468       .  S
Cd2270     O2274   2.465       .  S
Cd2270     O2272   2.447       .  S
C2273      O2277   1.264       .  A
C2273      C2581   1.477       .  S
O2278      C2281   1.266       .  A
O2278     Cd2283   2.464       .  S
C2279      O2288   1.265       .  A
C2279      O2284   1.266       .  A
C2279      C2498   1.491       .  S
O2280      C2286   1.269       .  A
O2280     Cd2283   2.497       .  S
C2281      O2289   1.266       .  A
C2281      C2514   1.490       .  S
C2282      O2287   1.268       .  A
C2282      O2285   1.265       .  A
C2282      C2578   1.487       .  S
Cd2283     O2290   2.446       .  S
Cd2283     O2289   2.449       .  S
Cd2283     O2288   2.459       .  S
Cd2283     O2284   2.468       .  S
Cd2283     O2287   2.478       .  S
Cd2283     O2285   2.433       .  S
C2286      O2290   1.263       .  A
C2286      C2597   1.493       .  S
O2291      C2294   1.268       .  A
O2291     Cd2296   2.486       .  S
C2292      O2301   1.266       .  A
C2292      O2297   1.268       .  A
C2292      C2549   1.491       .  S
O2293      C2299   1.269       .  A
O2293     Cd2296   2.479       .  S
C2294      O2302   1.264       .  A
C2294      C2565   1.496       .  S
C2295      O2300   1.268       .  A
C2295      O2298   1.263       .  A
C2295      C2485   1.472       .  S
Cd2296     O2303   2.441       .  S
Cd2296     O2302   2.456       .  S
Cd2296     O2301   2.447       .  S
Cd2296     O2297   2.469       .  S
Cd2296     O2300   2.500       .  S
Cd2296     O2298   2.416       .  S
C2299      O2303   1.263       .  A
C2299      C2466   1.490       .  S
O2304      C2307   1.266       .  A
O2304     Cd2309   2.453       .  S
C2305      O2314   1.266       .  A
C2305      O2310   1.267       .  A
C2305      C2501   1.493       .  S
O2306      C2312   1.268       .  A
O2306     Cd2309   2.481       .  S
C2307      O2315   1.266       .  A
C2307      C2517   1.482       .  S
C2308      O2313   1.269       .  A
C2308      O2311   1.263       .  A
C2308      C2482   1.483       .  S
Cd2309     O2316   2.444       .  S
Cd2309     O2315   2.444       .  S
Cd2309     O2314   2.448       .  S
Cd2309     O2310   2.470       .  S
Cd2309     O2313   2.500       .  S
Cd2309     O2311   2.409       .  S
C2312      O2316   1.265       .  A
C2312      C2661   1.493       .  S
O2317      C2320   1.269       .  A
O2317     Cd2322   2.500       .  S
C2318      O2327   1.265       .  A
C2318      O2323   1.269       .  A
C2318      C2437   1.494       .  S
O2319      C2325   1.267       .  A
O2319     Cd2322   2.480       .  S
C2320      O2328   1.261       .  A
C2320      C2418   1.495       .  S
C2321      O2326   1.266       .  A
C2321      O2324   1.265       .  A
C2321      C2533   1.490       .  S
Cd2322     O2329   2.450       .  S
Cd2322     O2328   2.442       .  S
Cd2322     O2327   2.456       .  S
Cd2322     O2323   2.479       .  S
Cd2322     O2326   2.472       .  S
Cd2322     O2324   2.457       .  S
C2325      O2329   1.265       .  A
C2325      C2450   1.485       .  S
O2330      C2333   1.267       .  A
O2330     Cd2335   2.474       .  S
C2331      O2340   1.263       .  A
C2331      O2336   1.268       .  A
C2331      C2386   1.490       .  S
O2332      C2338   1.269       .  A
O2332     Cd2335   2.476       .  S
C2333      O2341   1.266       .  A
C2333      C2402   1.495       .  S
C2334      O2339   1.267       .  A
C2334      O2337   1.264       .  A
C2334      C2453   1.489       .  S
Cd2335     O2342   2.452       .  S
Cd2335     O2341   2.457       .  S
Cd2335     O2340   2.448       .  S
Cd2335     O2336   2.492       .  S
Cd2335     O2339   2.492       .  S
Cd2335     O2337   2.449       .  S
C2338      O2342   1.264       .  A
C2338      C2738   1.492       .  S
O2343      C2346   1.269       .  A
O2343     Cd2348   2.479       .  S
C2344      O2353   1.266       .  A
C2344      O2349   1.267       .  A
C2344      C2405   1.495       .  S
O2345      C2351   1.268       .  A
O2345     Cd2348   2.482       .  S
C2346      O2354   1.263       .  A
C2346      C2389   1.492       .  S
C2347      O2352   1.269       .  A
C2347      O2350   1.263       .  A
C2347      C2770   1.488       .  S
Cd2348     O2355   2.423       .  S
Cd2348     O2354   2.457       .  S
Cd2348     O2353   2.452       .  S
Cd2348     O2349   2.478       .  S
Cd2348     O2352   2.485       .  S
Cd2348     O2350   2.433       .  S
C2351      O2355   1.262       .  A
C2351      C2370   1.479       .  S
O2356      C2359   1.269       .  A
O2356     Cd2361   2.492       .  S
C2357      O2366   1.264       .  A
C2357      O2362   1.270       .  A
C2357      C2434   1.495       .  S
O2358      C2364   1.269       .  A
O2358     Cd2361   2.476       .  S
C2359      O2367   1.263       .  A
C2359      C2421   1.494       .  S
C2360      O2365   1.269       .  A
C2360      O2363   1.263       .  A
C2360      C2469   1.491       .  S
Cd2361     O2368   2.431       .  S
Cd2361     O2367   2.452       .  S
Cd2361     O2366   2.454       .  S
Cd2361     O2362   2.474       .  S
Cd2361     O2365   2.478       .  S
Cd2361     O2363   2.436       .  S
C2364      O2368   1.263       .  A
C2364      C2373   1.481       .  S
C2369      C2370   1.402       .  A
C2369      C2374   1.403       .  A
C2369      H2376   1.086       .  S
C2370      C2371   1.416       .  A
C2371      C2372   1.403       .  A
C2371      C2378   1.509       .  S
C2372      C2373   1.403       .  A
C2372      H2377   1.086       .  S
C2373      C2374   1.418       .  A
C2374      C2375   1.508       .  S
C2375      H2379   1.111       .  S
C2375      H2380   1.109       .  S
C2375      H2381   1.110       .  S
C2378      H2382   1.109       .  S
C2378      H2383   1.110       .  S
C2378      H2384   1.111       .  S
C2385      C2390   1.407       .  A
C2385      H2392   1.085       .  S
C2386      C2387   1.419       .  A
C2387      C2394   1.509       .  S
C2388      H2393   1.085       .  S
C2390      C2391   1.508       .  S
C2391      H2395   1.111       .  S
C2391      H2396   1.110       .  S
C2391      H2397   1.110   1_655  S
C2394      H2398   1.111       .  S
C2394      H2399   1.109       .  S
C2401      C2402   1.408       .  A
C2401      C2406   1.406       .  A
C2401      H2408   1.082       .  S
C2403      C2404   1.406       .  A
C2403      C2410   1.508       .  S
C2404      C2405   1.408       .  A
C2404      H2409   1.082       .  S
C2406      C2407   1.508       .  S
C2407      H2411   1.111       .  S
C2407      H2412   1.110       .  S
C2407      H2413   1.110       .  S
C2410      H2414   1.110       .  S
C2410      H2415   1.110       .  S
C2410      H2416   1.111       .  S
C2417      H2424   1.085       .  S
C2418      C2419   1.422       .  A
C2420      H2425   1.085       .  S
C2421      C2422   1.421       .  A
C2422      C2423   1.509       .  S
C2423      H2428   1.110       .  S
C2423      H2429   1.110       .  S
C2426      H2432   1.111       .  S
C2433      C2438   1.405       .  A
C2433      H2440   1.085       .  S
C2434      C2435   1.421       .  A
C2435      C2436   1.406       .  A
C2435      C2442   1.509       .  S
C2436      H2441   1.085       .  S
C2437      C2438   1.420       .  A
C2438      C2439   1.508       .  S
C2439      H2443   1.111       .  S
C2439      H2444   1.110       .  S
C2439      H2445   1.110       .  S
C2442      H2446   1.110       .  S
C2442      H2447   1.110       .  S
C2442      H2448   1.111       .  S
C2449      C2450   1.405       .  A
C2449      C2454   1.406       .  A
C2449      H2456   1.083       .  S
C2450      C2451   1.415       .  A
C2451      C2452   1.405       .  A
C2451      C2458   1.508       .  S
C2452      C2453   1.406       .  A
C2452      H2457   1.083       .  S
C2453      C2454   1.417       .  A
C2454      C2455   1.507       .  S
C2455      H2459   1.111       .  S
C2455      H2460   1.110       .  S
C2455      H2461   1.110       .  S
C2458      H2462   1.110       .  S
C2458      H2463   1.111       .  S
C2458      H2464   1.111       .  S
C2465      C2466   1.404       .  A
C2465      C2470   1.404       .  A
C2465      H2472   1.083       .  S
C2466      C2467   1.420       .  A
C2467      C2468   1.405       .  A
C2467      C2474   1.509       .  S
C2468      C2469   1.405       .  A
C2468      H2473   1.082       .  S
C2469      C2470   1.421       .  A
C2470      C2471   1.509       .  S
C2471      H2475   1.111       .  S
C2471      H2476   1.110       .  S
C2471      H2477   1.111       .  S
C2474      H2478   1.110       .  S
C2474      H2479   1.110       .  S
C2474      H2480   1.111       .  S
C2481      C2482   1.404       .  A
C2481      C2486   1.397       .  A
C2481      H2488   1.083       .  S
C2482      C2483   1.417       .  A
C2483      C2484   1.411       .  A
C2483      C2490   1.506       .  S
C2484      C2485   1.403       .  A
C2484      H2489   1.082       .  S
C2485      C2486   1.410       .  A
C2486      C2487   1.510       .  S
C2487      H2491   1.111       .  S
C2487      H2492   1.111       .  S
C2487      H2493   1.109       .  S
C2490      H2494   1.111       .  S
C2490      H2495   1.109       .  S
C2490      H2496   1.111       .  S
C2497      C2498   1.407       .  A
C2497      C2502   1.406       .  A
C2497      H2504   1.081       .  S
C2499      C2500   1.404       .  A
C2499      C2506   1.508       .  S
C2500      C2501   1.407       .  A
C2500      H2505   1.082       .  S
C2502      C2503   1.508       .  S
C2503      H2507   1.111       .  S
C2503      H2508   1.110       .  S
C2503      H2509   1.110       .  S
C2506      H2510   1.110       .  S
C2506      H2511   1.110       .  S
C2506      H2512   1.111       .  S
C2513      C2514   1.407       .  A
C2513      H2520   1.085       .  S
C2515      C2516   1.403       .  A
C2515      C2522   1.508       .  S
C2516      H2521   1.086       .  S
C2518      C2519   1.509       .  S
C2519      H2523   1.111       .  S
C2519      H2524   1.110       .  S
C2519      H2525   1.109       .  S
C2522      H2526   1.110       .  S
C2522      H2527   1.110       .  S
C2522      H2528   1.111       .  S
C2529      C2530   1.407       .  A
C2529      C2534   1.405       .  A
C2529      H2536   1.080       .  S
C2530      C2531   1.417       .  A
C2531      C2532   1.405       .  A
C2531      C2538   1.508       .  S
C2532      C2533   1.407       .  A
C2532      H2537   1.080       .  S
C2533      C2534   1.417       .  A
C2534      C2535   1.508       .  S
C2535      H2539   1.110       .  S
C2535      H2540   1.110       .  S
C2535      H2541   1.111       .  S
C2538      H2542   1.110       .  S
C2538      H2543   1.110       .  S
C2538      H2544   1.110       .  S
C2545      C2546   1.408       .  A
C2545      H2552   1.082       .  S
C2546      C2547   1.418       .  A
C2547      C2554   1.508       .  S
C2548      C2549   1.408       .  A
C2548      H2553   1.082       .  S
C2549      C2550   1.416       .  A
C2550      C2551   1.508       .  S
C2551      H2555   1.111       .  S
C2551      H2556   1.110       .  S
C2551      H2557   1.110       .  S
C2554      H2558   1.110       .  S
C2554      H2559   1.110       .  S
C2554      H2560   1.111       .  S
C2561      C2562   1.404       .  A
C2561      C2566   1.405       .  A
C2561      H2568   1.084       .  S
C2562      C2563   1.420       .  A
C2563      C2564   1.407       .  A
C2563      C2570   1.508       .  S
C2564      C2565   1.407       .  A
C2564      H2569   1.084       .  S
C2565      C2566   1.421       .  A
C2566      C2567   1.509       .  S
C2567      H2571   1.111       .  S
C2567      H2572   1.110       .  S
C2567      H2573   1.110       .  S
C2570      H2574   1.110       .  S
C2570      H2575   1.110       .  S
C2570      H2576   1.111       .  S
C2577      C2578   1.408       .  A
C2577      C2582   1.403       .  A
C2577      H2584   1.082       .  S
C2578      C2579   1.418       .  A
C2579      C2580   1.405       .  A
C2579      C2586   1.507       .  S
C2580      C2581   1.402       .  A
C2580      H2585   1.083       .  S
C2581      C2582   1.412       .  A
C2582      C2583   1.508       .  S
C2583      H2587   1.111       .  S
C2583      H2588   1.110       .  S
C2583      H2589   1.111       .  S
C2586      H2590   1.110       .  S
C2586      H2591   1.110       .  S
C2586      H2592   1.111       .  S
C2593      C2594   1.403       .  A
C2593      C2598   1.404       .  A
C2593      H2600   1.085       .  S
C2594      C2595   1.419       .  A
C2595      C2596   1.407       .  A
C2595      C2602   1.508       .  S
C2596      C2597   1.405       .  A
C2596      H2601   1.085       .  S
C2597      C2598   1.420       .  A
C2598      C2599   1.509       .  S
C2599      H2603   1.111       .  S
C2599      H2604   1.110       .  S
C2599      H2605   1.110       .  S
C2602      H2606   1.111       .  S
C2602      H2607   1.109       .  S
C2602      H2608   1.111       .  S
C2609      C2610   1.407       .  A
C2609      C2614   1.407   1_556  A
C2609      H2616   1.083       .  S
C2610      C2611   1.417       .  A
C2611      C2612   1.405   1_556  A
C2611      C2618   1.508       .  S
C2612      C2613   1.405       .  A
C2612      H2617   1.083       .  S
C2613      C2614   1.416       .  A
C2614      C2615   1.507       .  S
C2615      H2619   1.111       .  S
C2615      H2620   1.110       .  S
C2615      H2621   1.110       .  S
C2618      H2622   1.110       .  S
C2618      H2623   1.110       .  S
C2618      H2624   1.111       .  S
C2625      C2626   1.404       .  A
C2625      C2630   1.406       .  A
C2625      H2632   1.085       .  S
C2626      C2627   1.421       .  A
C2627      C2628   1.406       .  A
C2627      C2634   1.509       .  S
C2628      C2629   1.405       .  A
C2628      H2633   1.084       .  S
C2629      C2630   1.422       .  A
C2630      C2631   1.509       .  S
C2631      H2635   1.111       .  S
C2631      H2636   1.111       .  S
C2631      H2637   1.110       .  S
C2634      H2638   1.110       .  S
C2634      H2639   1.110       .  S
C2634      H2640   1.111       .  S
C2641      C2642   1.404       .  A
C2641      C2646   1.405   1_565  A
C2641      H2648   1.085       .  S
C2643      C2644   1.406       .  A
C2643      C2650   1.509       .  S
C2644      C2645   1.405       .  A
C2644      H2649   1.085       .  S
C2646      C2647   1.509       .  S
C2647      H2651   1.111   1_545  S
C2650      H2656   1.111       .  S
C2657      C2658   1.407       .  A
C2657      C2662   1.406       .  A
C2657      H2664   1.086       .  S
C2658      C2659   1.417       .  A
C2659      C2660   1.404       .  A
C2659      C2666   1.508       .  S
C2660      C2661   1.407       .  A
C2660      H2665   1.086       .  S
C2661      C2662   1.418       .  A
C2662      C2663   1.508       .  S
C2663      H2667   1.111       .  S
C2663      H2668   1.110       .  S
C2663      H2669   1.110       .  S
C2666      H2670   1.110       .  S
C2666      H2671   1.110       .  S
C2666      H2672   1.111       .  S
C2673      C2674   1.404       .  A
C2673      C2678   1.405       .  A
C2673      H2680   1.085       .  S
C2674      C2675   1.422       .  A
C2675      C2676   1.407       .  A
C2675      C2682   1.509       .  S
C2676      C2677   1.405       .  A
C2676      H2681   1.085       .  S
C2677      C2678   1.422       .  A
C2678      C2679   1.509       .  S
C2679      H2683   1.111       .  S
C2679      H2684   1.110       .  S
C2679      H2685   1.110       .  S
C2682      H2686   1.110       .  S
C2682      H2687   1.110       .  S
C2682      H2688   1.111       .  S
C2689      C2690   1.404       .  A
C2689      C2694   1.405       .  A
C2689      H2696   1.086       .  S
C2690      C2691   1.419       .  A
C2691      C2698   1.509       .  S
C2692      C2693   1.405       .  A
C2692      H2697   1.086       .  S
C2694      C2695   1.509       .  S
C2695      H2699   1.111       .  S
C2695      H2700   1.110       .  S
C2695      H2701   1.111   1_655  S
C2698      H2702   1.110       .  S
C2698      H2703   1.110       .  S
C2705      C2706   1.402       .  A
C2705      C2710   1.404   1_556  A
C2705      H2712   1.086       .  S
C2706      C2707   1.415       .  A
C2707      C2708   1.403   1_556  A
C2707      C2714   1.508       .  S
C2708      C2709   1.404       .  A
C2708      H2713   1.086       .  S
C2709      C2710   1.419       .  A
C2710      C2711   1.508       .  S
C2711      H2715   1.111   1_554  S
C2711      H2716   1.109       .  S
C2711      H2717   1.110       .  S
C2714      H2718   1.109       .  S
C2714      H2719   1.110       .  S
C2714      H2720   1.111   1_556  S
C2721      C2722   1.403       .  A
C2721      C2726   1.403       .  A
C2721      H2728   1.083       .  S
C2722      C2723   1.420       .  A
C2723      C2724   1.407       .  A
C2723      C2730   1.508       .  S
C2724      C2725   1.406       .  A
C2724      H2729   1.083       .  S
C2725      C2726   1.421       .  A
C2726      C2727   1.509       .  S
C2727      H2731   1.111       .  S
C2727      H2732   1.110       .  S
C2727      H2733   1.110       .  S
C2730      H2734   1.111       .  S
C2730      H2735   1.110       .  S
C2730      H2736   1.111       .  S
C2737      C2738   1.404       .  A
C2737      C2742   1.405       .  A
C2737      H2744   1.085       .  S
C2738      C2739   1.420       .  A
C2739      C2740   1.405       .  A
C2739      C2746   1.508       .  S
C2740      C2741   1.405       .  A
C2740      H2745   1.085       .  S
C2741      C2742   1.421       .  A
C2742      C2743   1.509       .  S
C2743      H2747   1.111       .  S
C2743      H2748   1.110       .  S
C2743      H2749   1.110       .  S
C2746      H2750   1.110       .  S
C2746      H2751   1.110       .  S
C2746      H2752   1.111       .  S
C2753      C2754   1.405       .  A
C2753      C2758   1.404       .  A
C2753      H2760   1.085       .  S
C2754      C2755   1.420       .  A
C2755      C2756   1.405       .  A
C2755      C2762   1.509       .  S
C2756      C2757   1.403       .  A
C2756      H2761   1.085       .  S
C2757      C2758   1.415       .  A
C2758      C2759   1.508       .  S
C2759      H2763   1.111       .  S
C2759      H2764   1.109       .  S
C2759      H2765   1.110       .  S
C2762      H2766   1.109       .  S
C2762      H2767   1.110       .  S
C2762      H2768   1.111       .  S
C2769      C2770   1.406       .  A
C2769      C2774   1.406       .  A
C2769      H2776   1.083       .  S
C2770      C2771   1.420       .  A
C2771      C2772   1.403       .  A
C2771      C2778   1.509       .  S
C2772      C2773   1.401       .  A
C2772      H2777   1.084       .  S
C2773      C2774   1.416       .  A
C2774      C2775   1.508       .  S
C2775      H2779   1.111       .  S
C2775      H2780   1.111       .  S
C2775      H2781   1.109       .  S
C2778      H2782   1.110       .  S
C2778      H2783   1.111       .  S
C2778      H2784   1.111       .  S
C2785      C2790   1.406       .  A
C2785      H2792   1.082       .  S
C2786      C2787   1.418       .  A
C2787      C2794   1.508       .  S
C2788      C2789   1.407       .  A
C2788      H2793   1.082       .  S
C2789      C2790   1.417       .  A
C2790      C2791   1.508       .  S
C2791      H2795   1.111       .  S
C2791      H2796   1.110       .  S
C2791      H2797   1.110       .  S
C2794      H2798   1.110       .  S
C2794      H2799   1.110       .  S
C2794      H2800   1.111       .  S
C2801      C2802   1.407       .  A
C2801      C2806   1.405       .  A
C2801      H2808   1.082       .  S
C2802      C2803   1.419       .  A
C2803      C2804   1.406       .  A
C2803      C2810   1.509       .  S
C2804      C2805   1.407       .  A
C2804      H2809   1.081       .  S
C2805      C2806   1.418       .  A
C2806      C2807   1.508       .  S
C2807      H2811   1.111       .  S
C2807      H2812   1.110       .  S
C2807      H2813   1.110       .  S
C2810      H2814   1.110       .  S
C2810      H2815   1.110       .  S
C2810      H2816   1.111       .  S
C2817      C2818   1.407       .  A
C2817      C2822   1.405       .  A
C2817      H2824   1.080       .  S
C2818      C2819   1.416       .  A
C2819      C2820   1.404       .  A
C2819      C2826   1.508       .  S
C2820      C2821   1.407       .  A
C2820      H2825   1.080       .  S
C2821      C2822   1.419       .  A
C2822      C2823   1.508       .  S
C2823      H2827   1.110       .  S
C2823      H2828   1.110       .  S
C2823      H2829   1.110       .  S
C2826      H2830   1.111       .  S
C2826      H2831   1.110       .  S
C2826      H2832   1.110       .  S
C2833      C2834   1.409       .  A
C2833      C2838   1.409       .  A
C2833      H2840   1.081       .  S
C2835      C2836   1.405       .  A
C2835      C2842   1.509       .  S
C2836      C2837   1.407       .  A
C2836      H2841   1.081       .  S
C2838      C2839   1.508       .  S
C2839      H2843   1.111       .  S
C2839      H2844   1.110       .  S
C2839      H2845   1.110       .  S
C2842      H2846   1.110       .  S
C2842      H2847   1.110       .  S
C2842      H2848   1.111       .  S
C2849      C2854   1.409       .  A
C2849      H2856   1.081       .  S
C2851      C2852   1.403       .  A
C2851      C2858   1.509       .  S
C2852      H2857   1.081       .  S
C2854      C2855   1.508       .  S
C2855      H2859   1.111       .  S
C2855      H2860   1.110       .  S
C2855      H2861   1.110       .  S
C2858      H2862   1.110       .  S
C2858      H2863   1.110       .  S
C2858      H2864   1.111       .  S
C2865      C2866   1.405       .  A
C2865      C2870   1.404       .  A
C2865      H2872   1.085       .  S
C2866      C2867   1.417       .  A
C2867      C2868   1.405       .  A
C2867      C2874   1.508       .  S
C2868      C2869   1.405       .  A
C2868      H2873   1.085       .  S
C2869      C2870   1.416       .  A
C2870      C2871   1.508       .  S
C2871      H2875   1.111       .  S
C2871      H2876   1.110       .  S
C2871      H2877   1.110       .  S
C2874      H2878   1.110       .  S
C2874      H2879   1.110       .  S
C2874      H2880   1.111       .  S
