geometry optimzed in LAMMPS
_audit_creation_date              2020-12-01 
_audit_creation_method            'lammps2cif' 
_symmetry_space_group_name_H-M    'P1' 
_symmetry_Int_Tables_number       1 
_symmetry_cell_setting            triclinic 
loop_ 
_symmetry_equiv_pos_as_xyz 
  x,y,z 
_cell_length_a                    23.91737887 
_cell_length_b                    48.8457210226107 
_cell_length_c                    48.04391978269348 
_cell_angle_alpha                 91.22319312769687 
_cell_angle_beta                  88.36406114409908 
_cell_angle_gamma                 89.97620421511229 
loop_ 
_atom_site_label 
_atom_site_type_symbol 
_atom_site_fract_x 
_atom_site_fract_y 
_atom_site_fract_z 
_atom_site_charge 
N1          N  0.06244733  0.03342536  0.05453771    -0.04600
N2          N  0.09847241  0.04121728  0.07375074    -0.56700
N3          N  0.93356196  0.05155189  0.03698347    -0.04300
N4          N  0.89824444  0.07162388  0.04311456    -0.58800
N5          N  0.93286225  0.03339974  0.05690566    -0.03900
N6          N  0.89642756  0.04105527  0.07702464    -0.56700
N7          N  0.06161026  0.05144891  0.03453960    -0.03500
N8          N  0.09664919  0.07158778  0.03974675    -0.59200
C9          C  0.12002984  0.06501436  0.06400926     0.97600
C10         C  0.87465313  0.06486674  0.06786870     0.97400
N11         N  0.92995904  0.03253875  0.45102946    -0.04800
N12         N  0.89527181  0.04000562  0.43153497    -0.57300
N13         N  0.05928114  0.05149111  0.46809343    -0.02900
N14         N  0.09577825  0.07099099  0.46221072    -0.58500
N15         N  0.05826725  0.03300444  0.44772803    -0.04800
N16         N  0.09429727  0.03979596  0.42749537    -0.57600
N17         N  0.93192274  0.05150912  0.47087508    -0.02500
N18         N  0.89907236  0.07220074  0.46514770    -0.58600
Mn19       Mn  0.99670293  0.05161940  0.00272858     1.18400
C20         C  0.87586778  0.06469729  0.44081428     0.99700
C21         C  0.11705785  0.06366846  0.43678973     1.00300
N22         N  0.93475535  0.46681913  0.05643883    -0.04800
N23         N  0.89877080  0.46013143  0.07666764    -0.61100
N24         N  0.06145462  0.44901232  0.03256580    -0.03600
N25         N  0.09661625  0.42900877  0.03714431    -0.61800
N26         N  0.06268151  0.46758191  0.05287691    -0.04300
N27         N  0.09918254  0.46035888  0.07164883    -0.61400
N28         N  0.93445986  0.44807049  0.03627561    -0.03200
N29         N  0.89839521  0.42845084  0.04237471    -0.62100
Mn30       Mn  0.99807448  0.50033919  0.05598988     1.10700
C31         C  0.87684297  0.43603481  0.06766668     1.00900
C32         C  0.12037538  0.43636141  0.06129764     1.01000
N33         N  0.05784282  0.46676139  0.44731284    -0.04300
N34         N  0.09248286  0.46043727  0.42633958    -0.59700
N35         N  0.93046115  0.44830391  0.46977985    -0.03700
N36         N  0.89484902  0.42841030  0.46444315    -0.56400
N37         N  0.92884863  0.46687107  0.45031504    -0.05000
N38         N  0.89181196  0.45973190  0.43138134    -0.59300
N39         N  0.05933395  0.44768017  0.46624554    -0.04000
N40         N  0.09523094  0.42801709  0.45831953    -0.56500
Mn41       Mn  0.99369311  0.99968963  0.44856627     1.20200
Mn42       Mn  0.99642794  0.44792117  0.50119524     1.10100
Cl43       Cl  0.99620002  0.99987498  0.00214298    -0.84400
C44         C  0.11606828  0.43640634  0.43337841     0.97900
C45         C  0.87034022  0.43576889  0.44067277     0.97700
C46         C  0.81560560  0.37006167  0.40634992     0.88000
C47         C  0.75411954  0.37715112  0.41227388    -0.52200
C48         C  0.74241476  0.40436362  0.40964834     0.10900
C49         C  0.79420312  0.42198507  0.40131517     0.21900
C50         C  0.82906913  0.38058082  0.37720151    -0.52900
C51         C  0.81761735  0.40762394  0.37432064     0.11000
C52         C  0.84816809  0.38849604  0.42608723    -0.52500
C53         C  0.83798272  0.41579189  0.42367230     0.11600
H54         H  0.72291206  0.36216584  0.41854263     0.16100
H55         H  0.78504014  0.44411702  0.39912767     0.01900
H56         H  0.84581040  0.36768923  0.36021777     0.16400
H57         H  0.87829482  0.38048210  0.44036552     0.16200
C58         C  0.73273249  0.40839600  0.08888817     0.88000
C59         C  0.77637003  0.42593717  0.07367282    -0.52200
C60         C  0.82971548  0.42161713  0.08151895     0.10900
C61         C  0.83465341  0.39967054  0.10413845     0.21900
C62         C  0.75203102  0.37868176  0.08382142    -0.52900
C63         C  0.80536160  0.37398689  0.09193379     0.11000
C64         C  0.74113473  0.41427424  0.11992266    -0.52500
C65         C  0.79452299  0.40966119  0.12802715     0.11600
H66         H  0.76614114  0.44052978  0.05786041     0.16100
H67         H  0.87819766  0.39602882  0.11062170     0.01900
H68         H  0.72581306  0.36279888  0.07489115     0.16400
H69         H  0.70829788  0.42208613  0.13403854     0.16200
N70         N  0.57594189  0.42478327  0.99777587    -0.35100
N71         N  0.49225800  0.42615773  0.45463097    -0.55600
N72         N  0.40613737  0.42992000  0.49906883    -0.35100
N73         N  0.49019302  0.43165493  0.04204572    -0.55600
C74         C  0.60862225  0.42969630  0.47495312     0.28500
C75         C  0.60708231  0.43004474  0.02033834     0.28500
C76         C  0.37341880  0.42989926  0.47658394     0.28500
C77         C  0.37275131  0.43469873  0.02185974     0.28500
C78         C  0.53835890  0.42144248  0.43819245     0.37100
C79         C  0.44701380  0.42075354  0.43911065     0.37100
C80         C  0.53428075  0.42648068  0.05806023     0.37100
C81         C  0.44409366  0.43045765  0.05884053     0.37100
C82         C  0.66114197  0.43817246  0.48324726    -0.20400
C83         C  0.66016702  0.43827582  0.01181391    -0.20400
C84         C  0.31850879  0.43537919  0.48520180    -0.20400
C85         C  0.31811888  0.43844397  0.01362611    -0.20400
C86         C  0.52238921  0.41370661  0.41166309    -0.21400
C87         C  0.46456375  0.41319590  0.41225876    -0.21400
C88         C  0.51644241  0.42283371  0.08541698    -0.21400
C89         C  0.45918755  0.42545960  0.08594157    -0.21400
C90         C  0.59430342  0.42455141  0.44692526    -0.16800
C91         C  0.59037808  0.42577563  0.04832473    -0.16800
C92         C  0.38855942  0.43296762  0.04997643    -0.16800
C93         C  0.39032679  0.42277074  0.44885136    -0.16800
H94         H  0.69686728  0.44340495  0.47008606     0.16100
H95         H  0.69468070  0.44377203  0.02483196     0.16100
H96         H  0.28197982  0.43634397  0.47246855     0.16100
H97         H  0.28124911  0.44208318  0.02678012     0.16100
H98         H  0.54951045  0.40878875  0.39383532     0.14400
H99         H  0.43846015  0.40785253  0.39493172     0.14400
H100        H  0.54196759  0.41873681  0.10310328     0.14400
H101        H  0.43176327  0.42350110  0.10410331     0.14400
H102        H  0.53634258  0.41616357  0.49803953     0.27700
H103        H  0.44795000  0.42483201  0.49900103     0.27700
C104        C  0.81744212  0.12894968  0.40785517     0.88000
C105        C  0.82788917  0.11773917  0.37823539    -0.52200
C106        C  0.81827036  0.09040980  0.37543429     0.10900
C107        C  0.79922423  0.07656734  0.40280537     0.21900
C108        C  0.75735485  0.12096535  0.41572597    -0.52900
C109        C  0.74775780  0.09344460  0.41322143     0.11000
C110        C  0.85393162  0.11162565  0.42627439    -0.52500
C111        C  0.84463183  0.08414357  0.42387087     0.11600
H112        H  0.84176026  0.13031367  0.36096772     0.16100
H113        H  0.79134199  0.05421463  0.40069811     0.01900
H114        H  0.72610641  0.13546742  0.42375684     0.16400
H115        H  0.88468485  0.12043698  0.44007812     0.16200
N116        N  0.82971914  0.49648180  0.20979677    -0.35100
N117        N  0.83879002  0.03993761  0.25200095    -0.55600
N118        N  0.84460822  0.49754317  0.29314003    -0.35100
N119        N  0.84152390  0.45408003  0.25112954    -0.55600
C120        C  0.83890575  0.01873251  0.19402429     0.28500
C121        C  0.84133653  0.47413656  0.19354215     0.28500
C122        C  0.85980167  0.01997887  0.30791205     0.28500
C123        C  0.86026835  0.47556326  0.30753616     0.28500
C124        C  0.82092937  0.05467175  0.23048088     0.37100
C125        C  0.82823740  0.05504333  0.27548221     0.37100
C126        C  0.82575030  0.43853580  0.22909810     0.37100
C127        C  0.83106027  0.43938246  0.27425609     0.37100
C128        C  0.85691526  0.01045143  0.16744384    -0.20400
C129        C  0.85847515  0.48232020  0.16713886    -0.20400
C130        C  0.88677384  0.01221304  0.33170253    -0.20400
C131        C  0.88700899  0.48406476  0.33147910    -0.20400
C132        C  0.79984459  0.07963374  0.24024110    -0.21400
C133        C  0.80430845  0.07982631  0.26886704    -0.21400
C134        C  0.80617279  0.41345326  0.23817393    -0.21400
C135        C  0.80932446  0.41403829  0.26688771    -0.21400
C136        C  0.82617008  0.04600579  0.20224682    -0.16800
C137        C  0.83106686  0.44673522  0.20106020    -0.16800
C138        C  0.84341044  0.44856924  0.30155244    -0.16800
C139        C  0.84220894  0.04673872  0.30243661    -0.16800
H140        H  0.86669457  0.02330597  0.14988496     0.16100
H141        H  0.86966119  0.46936450  0.14927885     0.16100
H142        H  0.90230687  0.02544504  0.34810884     0.16100
H143        H  0.90279132  0.47131780  0.34766618     0.16100
H144        H  0.78282008  0.09587163  0.22804689     0.14400
H145        H  0.79155380  0.09625941  0.28313113     0.14400
H146        H  0.79098833  0.39662517  0.22547464     0.14400
H147        H  0.79730948  0.39771072  0.28070544     0.14400
H148        H  0.81179636  0.49649703  0.22973729     0.27700
H149        H  0.81902114  0.49723507  0.27602430     0.27700
C150        C  0.81429185  0.13075932  0.10185117     0.88000
C151        C  0.85189398  0.11236896  0.08313934    -0.52200
C152        C  0.84091700  0.08498801  0.08491639     0.10900
C153        C  0.79183077  0.07859075  0.10543285     0.21900
C154        C  0.75450724  0.12346767  0.09364469    -0.52900
C155        C  0.74241684  0.09615099  0.09554300     0.11000
C156        C  0.82021712  0.11969688  0.13124095    -0.52500
C157        C  0.80829571  0.09249493  0.13320710     0.11600
H158        H  0.88516643  0.12042931  0.06978425     0.16100
H159        H  0.78227006  0.05640561  0.10695902     0.01900
H160        H  0.72478974  0.13842700  0.08652948     0.16400
H161        H  0.83307490  0.13222302  0.14888842     0.16200
N162        N  0.41822816  0.07376886  0.00576584    -0.35100
N163        N  0.50554379  0.07156126  0.46238928    -0.55600
N164        N  0.58731987  0.07050827  0.00641212    -0.35100
N165        N  0.49952883  0.06909985  0.04985646    -0.55600
C166        C  0.38850952  0.06930209  0.48257487     0.28500
C167        C  0.38516900  0.06672566  0.02777233     0.28500
C168        C  0.62066884  0.06528812  0.48367083     0.28500
C169        C  0.61771748  0.06576075  0.02914240     0.28500
C170        C  0.46206416  0.07872117  0.44668739     0.37100
C171        C  0.55258581  0.07568925  0.44682789     0.37100
C172        C  0.45270700  0.07458078  0.06552901     0.37100
C173        C  0.54385572  0.07476195  0.06594954     0.37100
C174        C  0.33623659  0.05904557  0.48989854    -0.20400
C175        C  0.33407042  0.05741388  0.01840737    -0.20400
C176        C  0.67279868  0.05675185  0.49209598    -0.20400
C177        C  0.67097174  0.05709904  0.02073514    -0.20400
C178        C  0.48137003  0.08684257  0.42069301    -0.21400
C179        C  0.53885430  0.08484032  0.42074204    -0.21400
C180        C  0.46724589  0.08302555  0.09206792    -0.21400
C181        C  0.52502415  0.08319175  0.09232377    -0.21400
C182        C  0.40535766  0.07669690  0.45537494    -0.16800
C183        C  0.39738095  0.07158328  0.05602888    -0.16800
C184        C  0.60078502  0.07193079  0.05705116    -0.16800
C185        C  0.60747509  0.07088759  0.45579965    -0.16800
H186        H  0.30287538  0.05361776  0.47615317     0.16100
H187        H  0.29841774  0.05075020  0.03088517     0.16100
H188        H  0.70903363  0.05165131  0.47898310     0.16100
H189        H  0.70548054  0.05225451  0.03388094     0.16100
H190        H  0.45666241  0.09335654  0.40350384     0.14400
H191        H  0.56726463  0.08968204  0.40361010     0.14400
H192        H  0.43920443  0.08869616  0.10931440     0.14400
H193        H  0.55024570  0.08897914  0.10984184     0.14400
H194        H  0.45664756  0.08355768  0.00668634     0.27700
H195        H  0.54792116  0.07927943  0.00651218     0.27700
C196        C  0.18674738  0.40894201  0.36608770     0.88000
C197        C  0.17275002  0.37896397  0.37168772    -0.52200
C198        C  0.17654145  0.37215943  0.39908078     0.10900
C199        C  0.19376925  0.39661288  0.41843252     0.21900
C200        C  0.14743381  0.42539601  0.38545188    -0.52900
C201        C  0.15079538  0.41976230  0.41294042     0.11000
C202        C  0.24505824  0.41349206  0.37744841    -0.52500
C203        C  0.24933298  0.40699421  0.40470533     0.11600
H204        H  0.16036249  0.36448326  0.35553280     0.16100
H205        H  0.19696028  0.39145162  0.44073200     0.01900
H206        H  0.11820259  0.44028667  0.37788834     0.16400
H207        H  0.27991307  0.42144959  0.36506470     0.16200
N208        N  0.00039864  0.29121691  0.41338558    -0.35100
N209        N  0.91320175  0.24987298  0.41365931    -0.55600
N210        N  0.99906381  0.20799835  0.41262428    -0.35100
N211        N  0.08743008  0.24920170  0.40975981    -0.55600
C212        C  0.95486412  0.30589985  0.40658012     0.28500
C213        C  0.04603748  0.30587043  0.40559647     0.28500
C214        C  0.95306919  0.19337832  0.40596721     0.28500
C215        C  0.04412191  0.19274255  0.40456294     0.28500
C216        C  0.88085445  0.27215856  0.41825949     0.37100
C217        C  0.88021736  0.22800375  0.41824297     0.37100
C218        C  0.11964350  0.27151148  0.41481031     0.37100
C219        C  0.11879114  0.22669827  0.41439352     0.37100
C220        C  0.97180787  0.33007492  0.39429294    -0.20400
C221        C  0.02919388  0.33005668  0.39364151    -0.20400
C222        C  0.96915714  0.16865600  0.39340663    -0.20400
C223        C  0.02655141  0.16825481  0.39251898    -0.20400
C224        C  0.82676421  0.26450135  0.42573985    -0.21400
C225        C  0.82637431  0.23634474  0.42575906    -0.21400
C226        C  0.17236720  0.26314015  0.42238672    -0.21400
C227        C  0.17180724  0.23474263  0.42215621    -0.21400
C228        C  0.89851503  0.29890365  0.41262969    -0.16800
C229        C  0.10219196  0.29899087  0.41084674    -0.16800
C230        C  0.10033209  0.19927444  0.40998437    -0.16800
C231        C  0.89713923  0.20090572  0.41259347    -0.16800
H232        H  0.94558557  0.34620013  0.38671119     0.16100
H233        H  0.05541573  0.34617516  0.38537474     0.16100
H234        H  0.94237869  0.15241636  0.38589359     0.16100
H235        H  0.05240160  0.15164400  0.38421149     0.16100
H236        H  0.79107396  0.27776226  0.42985177     0.14400
H237        H  0.79032104  0.22350841  0.42986629     0.14400
H238        H  0.20753383  0.27610424  0.42736912     0.14400
H239        H  0.20647324  0.22155474  0.42691453     0.14400
H240        H  0.00043244  0.27317684  0.42447668     0.27700
H241        H  0.99977410  0.22635795  0.42395069     0.27700
C242        C  0.26061089  0.09270919  0.41544557     0.88000
C243        C  0.23997775  0.12231988  0.41962172    -0.52200
C244        C  0.18664613  0.12640750  0.41117379     0.10900
C245        C  0.15838352  0.10001148  0.39963777     0.21900
C246        C  0.21739736  0.07511619  0.43101429    -0.52900
C247        C  0.16387951  0.07854478  0.42282852     0.11000
C248        C  0.25263969  0.08593968  0.38451490    -0.52500
C249        C  0.19917685  0.08980408  0.37609527     0.11600
H250        H  0.26573740  0.13872517  0.42789581     0.16100
H251        H  0.11482839  0.10307977  0.39288226     0.01900
H252        H  0.22803464  0.06104555  0.44721660     0.16400
H253        H  0.28601934  0.07827665  0.37063994     0.16200
N254        N  0.17005193  0.00326734  0.29113130    -0.35100
N255        N  0.16342079  0.46167462  0.24680181    -0.55600
N256        N  0.16142031  0.00540816  0.20652474    -0.35100
N257        N  0.16021508  0.04727126  0.25113001    -0.55600
C258        C  0.16359419  0.48031993  0.30624006     0.28500
C259        C  0.16134079  0.02506041  0.30863126     0.28500
C260        C  0.15005738  0.48348295  0.19000606     0.28500
C261        C  0.14958505  0.02800121  0.19210508     0.28500
C262        C  0.17349410  0.44492493  0.26805880     0.37100
C263        C  0.16842585  0.44623213  0.22323960     0.37100
C264        C  0.16896473  0.06283674  0.27425518     0.37100
C265        C  0.16579084  0.06383213  0.22897740     0.37100
C266        C  0.15118076  0.48774623  0.33372915    -0.20400
C267        C  0.14953951  0.01578455  0.33525949    -0.20400
C268        C  0.13095455  0.49225298  0.16469378    -0.20400
C269        C  0.13058040  0.02029734  0.16601209    -0.20400
C270        C  0.18373966  0.41851795  0.25801912    -0.21400
C271        C  0.18058558  0.41935681  0.22955160    -0.21400
C272        C  0.17864810  0.08973389  0.26681324    -0.21400
C273        C  0.17674574  0.09035295  0.23812064    -0.21400
C274        C  0.17130186  0.45292047  0.29641821    -0.16800
C275        C  0.16714626  0.05307235  0.30189901    -0.16800
C276        C  0.15951021  0.05531731  0.20079832    -0.16800
C277        C  0.15989443  0.45584807  0.19626020    -0.16800
H278        H  0.14460510  0.47447783  0.35109169     0.16100
H279        H  0.14113970  0.02790733  0.35403463     0.16100
H280        H  0.11910470  0.47975833  0.14694190     0.16100
H281        H  0.11825228  0.03349005  0.14943609     0.16100
H282        H  0.19229796  0.40052099  0.26995401     0.14400
H283        H  0.18618468  0.40214077  0.21518037     0.14400
H284        H  0.18638570  0.10705527  0.28059276     0.14400
H285        H  0.18254071  0.10825507  0.22546557     0.14400
H286        H  0.18316688  0.00404167  0.27045523     0.27700
H287        H  0.18020066  0.00505719  0.22566970     0.27700
C288        C  0.17971944  0.13176165  0.09390944     0.88000
C289        C  0.16803380  0.12354093  0.12400929    -0.52200
C290        C  0.17768990  0.09661474  0.12857273     0.10900
C291        C  0.19761185  0.08000966  0.10223394     0.21900
C292        C  0.24017251  0.12309587  0.08722843    -0.52900
C293        C  0.24994114  0.09594146  0.09161945     0.11000
C294        C  0.14406105  0.11268527  0.07625657    -0.52500
C295        C  0.15264666  0.08547108  0.08030129     0.11600
H296        H  0.15390625  0.13784702  0.14037603     0.16100
H297        H  0.20534061  0.05795906  0.10583882     0.01900
H298        H  0.27205365  0.13698100  0.07932596     0.16400
H299        H  0.11381000  0.12026640  0.06179929     0.16200
C300        C  0.18161126  0.37182975  0.09196326     0.88000
C301        C  0.14610839  0.38936019  0.07334178    -0.52200
C302        C  0.15341807  0.41684246  0.07707736     0.10900
C303        C  0.19650198  0.42424976  0.09918566     0.21900
C304        C  0.24187034  0.38078844  0.08587831    -0.52900
C305        C  0.24957477  0.40833101  0.08975047     0.11000
C306        C  0.16779644  0.38199921  0.12174636    -0.52500
C307        C  0.17586868  0.40941149  0.12542708     0.11600
H308        H  0.11667888  0.38066643  0.05875970     0.16100
H309        H  0.20297651  0.44663194  0.10225143     0.01900
H310        H  0.27475758  0.36695141  0.07831056     0.16400
H311        H  0.15335656  0.36877585  0.13837323     0.16200
N312        N  0.99656509  0.21089520  0.08867669    -0.35100
N313        N  0.08410172  0.25205544  0.08364637    -0.55600
N314        N  0.99826914  0.29442748  0.08324729    -0.35100
N315        N  0.91046294  0.25339424  0.09158487    -0.55600
C316        C  0.04280246  0.19589970  0.09355918     0.28500
C317        C  0.95166595  0.19640307  0.09784438     0.28500
C318        C  0.04477604  0.30969235  0.08727840     0.28500
C319        C  0.95357784  0.31056120  0.08985799     0.28500
C320        C  0.11612480  0.22954108  0.07958771     0.37100
C321        C  0.11717339  0.27367576  0.07799510     0.37100
C322        C  0.87693942  0.23106565  0.09070128     0.37100
C323        C  0.87780570  0.27549014  0.08734452     0.37100
C324        C  0.02698530  0.17151109  0.10582314    -0.20400
C325        C  0.96968323  0.17182351  0.10851487    -0.20400
C326        C  0.02920435  0.33592595  0.09611065    -0.20400
C327        C  0.97192611  0.33649003  0.09764112    -0.20400
C328        C  0.17000537  0.23684473  0.07131048    -0.21400
C329        C  0.17071316  0.26494071  0.07039153    -0.21400
C330        C  0.82234343  0.23904477  0.08628368    -0.21400
C331        C  0.82288862  0.26719138  0.08415696    -0.21400
C332        C  0.09864547  0.20289877  0.08607351    -0.16800
C333        C  0.89478234  0.20388607  0.09534984    -0.16800
C334        C  0.89661538  0.30304162  0.08814226    -0.16800
C335        C  0.10085665  0.30108746  0.08236568    -0.16800
H336        H  0.05383086  0.15505118  0.11210993     0.16100
H337        H  0.94423601  0.15564838  0.11726413     0.16100
H338        H  0.05611792  0.35303374  0.10103098     0.16100
H339        H  0.94675289  0.35405801  0.10401326     0.16100
H340        H  0.20540442  0.22340299  0.06717917     0.14400
H341        H  0.20668693  0.27751759  0.06532173     0.14400
H342        H  0.78591656  0.22598804  0.08499366     0.14400
H343        H  0.78694529  0.28008641  0.08092108     0.14400
H344        H  0.99547884  0.22916150  0.07811148     0.27700
H345        H  0.99687670  0.27457814  0.07522659     0.27700
C346        C  0.16947865  0.34277029  0.08746081    -0.11700
C347        C  0.14386204  0.32180652  0.08416270    -0.13300
C348        C  0.16591136  0.16045676  0.08926750    -0.11700
C349        C  0.14028476  0.18146060  0.08691263    -0.13300
C350        C  0.16748002  0.42315476  0.15188017    -0.11700
C351        C  0.16266505  0.43658272  0.17306150    -0.13300
C352        C  0.17122390  0.08555756  0.15614691    -0.11700
C353        C  0.16551920  0.07470949  0.17842971    -0.13300
C354        C  0.18300432  0.08252708  0.34798935    -0.11700
C355        C  0.17393909  0.07205055  0.32545107    -0.13300
C356        C  0.16149383  0.15366550  0.41140596    -0.11700
C357        C  0.13862761  0.17593086  0.41109216    -0.13300
C358        C  0.17693077  0.43192039  0.31708611    -0.11700
C359        C  0.18196987  0.41801921  0.33733128    -0.13300
C360        C  0.14177747  0.32192282  0.41090225    -0.11700
C361        C  0.16251842  0.34449906  0.40794469    -0.13300
C362        C  0.30421663  0.08381784  0.08477592    -0.11700
C363        C  0.34921355  0.07680615  0.07471806    -0.13300
C364        C  0.36105494  0.08296751  0.43636897    -0.11700
C365        C  0.31791618  0.08804322  0.42493504    -0.13300
C366        C  0.82993975  0.15998162  0.09966102    -0.11700
C367        C  0.85385209  0.18180557  0.09775610    -0.13300
C368        C  0.68884267  0.08515361  0.08702030    -0.11700
C369        C  0.64576508  0.07809265  0.07616919    -0.13300
C370        C  0.81766944  0.06526967  0.18010401    -0.11700
C371        C  0.81231836  0.07823376  0.15916990    -0.13300
C372        C  0.85559397  0.17945533  0.41210114    -0.11700
C373        C  0.83085956  0.15805252  0.41068786    -0.13300
C374        C  0.69624946  0.08162823  0.42373358    -0.11700
C375        C  0.65423109  0.07500552  0.43639273    -0.13300
C376        C  0.83332274  0.06480548  0.32652213    -0.08500
C377        C  0.82579086  0.07645759  0.34876037    -0.13300
C378        C  0.34343346  0.42892686  0.07013876    -0.11700
C379        C  0.30140193  0.42127355  0.08191166    -0.13300
C380        C  0.30175170  0.41091054  0.41868871    -0.11700
C381        C  0.34505400  0.41591862  0.43026097    -0.13300
C382        C  0.82191124  0.42734901  0.17822297    -0.11700
C383        C  0.81161547  0.41668516  0.15597267    -0.13300
C384        C  0.83105173  0.34704716  0.08985213    -0.11700
C385        C  0.85638041  0.32552275  0.08869134    -0.13300
C386        C  0.67615006  0.41408212  0.07946780    -0.11700
C387        C  0.63422394  0.41985827  0.06751012    -0.13300
C388        C  0.68680327  0.41488840  0.41665693    -0.11700
C389        C  0.64138740  0.42042098  0.42723962    -0.13300
C390        C  0.82600400  0.42057859  0.34770554    -0.11700
C391        C  0.83402752  0.43124565  0.32544226    -0.13300
C392        C  0.85706127  0.32035702  0.41130184    -0.11700
C393        C  0.83114830  0.34132323  0.40931486    -0.13300
N394        N  0.06244724  0.03342536  0.55453777    -0.04600
N395        N  0.09847240  0.04121725  0.57375077    -0.56700
N396        N  0.93356202  0.05155190  0.53698352    -0.04300
N397        N  0.89824444  0.07162386  0.54311455    -0.58800
N398        N  0.93286227  0.03339976  0.55690572    -0.03900
N399        N  0.89642748  0.04105527  0.57702465    -0.56700
N400        N  0.06161017  0.05144891  0.53453966    -0.03500
N401        N  0.09664917  0.07158774  0.53974678    -0.59200
C402        C  0.12002986  0.06501432  0.56400928     0.97600
C403        C  0.87465307  0.06486673  0.56786868     0.97400
N404        N  0.92995914  0.03253872  0.95102942    -0.04800
N405        N  0.89527184  0.04000557  0.93153495    -0.57300
N406        N  0.05928111  0.05149108  0.96809337    -0.02900
N407        N  0.09577823  0.07099095  0.96221067    -0.58500
N408        N  0.05826725  0.03300440  0.94772798    -0.04800
N409        N  0.09429729  0.03979592  0.92749532    -0.57600
N410        N  0.93192285  0.05150908  0.97087504    -0.02500
N411        N  0.89907241  0.07220068  0.96514768    -0.58600
Mn412      Mn  0.99670291  0.05161943  0.50272862     1.18400
C413        C  0.87586776  0.06469723  0.94081428     0.99700
C414        C  0.11705789  0.06366841  0.93678970     1.00300
N415        N  0.93475537  0.46681909  0.55643884    -0.04800
N416        N  0.89877076  0.46013139  0.57666764    -0.61100
N417        N  0.06145486  0.44901237  0.53256575    -0.03600
N418        N  0.09661651  0.42900883  0.53714425    -0.61800
N419        N  0.06268169  0.46758194  0.55287687    -0.04300
N420        N  0.09918269  0.46035891  0.57164880    -0.61400
N421        N  0.93445989  0.44807047  0.53627561    -0.03200
N422        N  0.89839521  0.42845081  0.54237469    -0.62100
Mn423      Mn  0.99807453  0.50033916  0.55598986     1.10700
C424        C  0.87684293  0.43603477  0.56766665     1.00900
C425        C  0.12037556  0.43636145  0.56129761     1.01000
N426        N  0.05784263  0.46676137  0.94731281    -0.04300
N427        N  0.09248267  0.46043726  0.92633954    -0.59700
N428        N  0.93046097  0.44830390  0.96977988    -0.03700
N429        N  0.89484881  0.42841030  0.96444316    -0.56400
N430        N  0.92884847  0.46687107  0.95031508    -0.05000
N431        N  0.89181181  0.45973193  0.93138137    -0.59300
N432        N  0.05933381  0.44768016  0.96624551    -0.04000
N433        N  0.09523086  0.42801710  0.95831951    -0.56500
Mn434      Mn  0.99369314  0.99968960  0.94856626     1.20200
Mn435      Mn  0.99642779  0.44792116  0.00119525     1.10100
Cl436      Cl  0.99619994  0.99987503  0.50214299    -0.84400
C437        C  0.11606815  0.43640636  0.93337838     0.97900
C438        C  0.87034005  0.43576892  0.94067279     0.97700
C439        C  0.81560554  0.37006168  0.90634997     0.88000
C440        C  0.75411947  0.37715115  0.91227394    -0.52200
C441        C  0.74241467  0.40436365  0.90964837     0.10900
C442        C  0.79420297  0.42198510  0.90131516     0.21900
C443        C  0.82906901  0.38058082  0.87720156    -0.52900
C444        C  0.81761712  0.40762393  0.87432065     0.11000
C445        C  0.84816800  0.38849610  0.92608725    -0.52500
C446        C  0.83798261  0.41579194  0.92367228     0.11600
H447        H  0.72291200  0.36216586  0.91854268     0.16100
H448        H  0.78503994  0.44411703  0.89912759     0.01900
H449        H  0.84581025  0.36768923  0.86021781     0.16400
H450        H  0.87829471  0.38048219  0.94036558     0.16200
C451        C  0.73273254  0.40839599  0.58888817     0.88000
C452        C  0.77637004  0.42593714  0.57367278    -0.52200
C453        C  0.82971547  0.42161709  0.58151890     0.10900
C454        C  0.83465345  0.39967047  0.60413838     0.21900
C455        C  0.75203099  0.37868176  0.58382135    -0.52900
C456        C  0.80536157  0.37398684  0.59193369     0.11000
C457        C  0.74113491  0.41427420  0.61992266    -0.52500
C458        C  0.79452314  0.40966110  0.62802713     0.11600
H459        H  0.76614117  0.44052972  0.55786033     0.16100
H460        H  0.87819774  0.39602870  0.61062154     0.01900
H461        H  0.72581302  0.36279891  0.57489102     0.16400
H462        H  0.70829815  0.42208612  0.63403856     0.16200
N463        N  0.57594184  0.42478316  0.49777589    -0.35100
N464        N  0.49225793  0.42615782  0.95463097    -0.55600
N465        N  0.40613721  0.42992012  0.99906878    -0.35100
N466        N  0.49019311  0.43165485  0.54204572    -0.55600
C467        C  0.60862232  0.42969635  0.97495310     0.28500
C468        C  0.60708232  0.43004468  0.52033835     0.28500
C469        C  0.37341867  0.42989926  0.97658389     0.28500
C470        C  0.37275150  0.43469878  0.52185979     0.28500
C471        C  0.53835884  0.42144263  0.93819244     0.37100
C472        C  0.44701375  0.42075369  0.93911062     0.37100
C473        C  0.53428085  0.42648056  0.55806020     0.37100
C474        C  0.44409379  0.43045754  0.55884055     0.37100
C475        C  0.66114214  0.43817238  0.98324725    -0.20400
C476        C  0.66016691  0.43827589  0.51181392    -0.20400
C477        C  0.31850856  0.43537894  0.98520174    -0.20400
C478        C  0.31811916  0.43844427  0.51362617    -0.20400
C479        C  0.52238915  0.41370686  0.91166305    -0.21400
C480        C  0.46456369  0.41319614  0.91225871    -0.21400
C481        C  0.51644258  0.42283356  0.58541694    -0.21400
C482        C  0.45918771  0.42545944  0.58594158    -0.21400
C483        C  0.59430341  0.42455152  0.94692523    -0.16800
C484        C  0.59037816  0.42577552  0.54832473    -0.16800
C485        C  0.38855955  0.43296760  0.54997648    -0.16800
C486        C  0.39032673  0.42277084  0.94885130    -0.16800
H487        H  0.69686754  0.44340478  0.97008607     0.16100
H488        H  0.69468056  0.44377216  0.52483196     0.16100
H489        H  0.28197960  0.43634357  0.97246848     0.16100
H490        H  0.28124947  0.44208364  0.52678019     0.16100
H491        H  0.54951042  0.40878907  0.89383528     0.14400
H492        H  0.43846008  0.40785285  0.89493164     0.14400
H493        H  0.54196789  0.41873660  0.60310318     0.14400
H494        H  0.43176347  0.42350088  0.60410333     0.14400
H495        H  0.53634248  0.41616371  0.99803949     0.27700
H496        H  0.44795004  0.42483233  0.99900098     0.27700
C497        C  0.81744216  0.12894967  0.90785509     0.88000
C498        C  0.82788913  0.11773915  0.87823531    -0.52200
C499        C  0.81827033  0.09040979  0.87543425     0.10900
C500        C  0.79922417  0.07656734  0.90280534     0.21900
C501        C  0.75735494  0.12096538  0.91572596    -0.52900
C502        C  0.74775781  0.09344465  0.91322143     0.11000
C503        C  0.85393166  0.11162562  0.92627433    -0.52500
C504        C  0.84463179  0.08414353  0.92387086     0.11600
H505        H  0.84176007  0.13031363  0.86096760     0.16100
H506        H  0.79134176  0.05421465  0.90069805     0.01900
H507        H  0.72610666  0.13546748  0.92375693     0.16400
H508        H  0.88468488  0.12043695  0.94007805     0.16200
N509        N  0.82971918  0.49648183  0.70979683    -0.35100
N510        N  0.83878964  0.03993760  0.75200092    -0.55600
N511        N  0.84460796  0.49754310  0.79314005    -0.35100
N512        N  0.84152374  0.45408004  0.75112954    -0.55600
C513        C  0.83890567  0.01873253  0.69402430     0.28500
C514        C  0.84133652  0.47413659  0.69354219     0.28500
C515        C  0.85980130  0.01997890  0.80791201     0.28500
C516        C  0.86026826  0.47556319  0.80753611     0.28500
C517        C  0.82092907  0.05467174  0.73048084     0.37100
C518        C  0.82823697  0.05504330  0.77548217     0.37100
C519        C  0.82575010  0.43853584  0.72909810     0.37100
C520        C  0.83106000  0.43938246  0.77425609     0.37100
C521        C  0.85691544  0.01045145  0.66744391    -0.20400
C522        C  0.85847518  0.48232024  0.66713891    -0.20400
C523        C  0.88677368  0.01221309  0.83170244    -0.20400
C524        C  0.88700911  0.48406466  0.83147899    -0.20400
C525        C  0.79984435  0.07963375  0.74024106    -0.21400
C526        C  0.80430811  0.07982629  0.76886700    -0.21400
C527        C  0.80617250  0.41345332  0.73817390    -0.21400
C528        C  0.80932405  0.41403833  0.76688769    -0.21400
C529        C  0.82616992  0.04600580  0.70224679    -0.16800
C530        C  0.83106674  0.44673526  0.70106020    -0.16800
C531        C  0.84341028  0.44856918  0.80155242    -0.16800
C532        C  0.84220843  0.04673871  0.80243658    -0.16800
H533        H  0.86669490  0.02330600  0.64988506     0.16100
H534        H  0.86966133  0.46936455  0.64927891     0.16100
H535        H  0.90230676  0.02544510  0.84810873     0.16100
H536        H  0.90279163  0.47131767  0.84766601     0.16100
H537        H  0.78282004  0.09587168  0.72804684     0.14400
H538        H  0.79155356  0.09625939  0.78313110     0.14400
H539        H  0.79098813  0.39662522  0.72547459     0.14400
H540        H  0.79730893  0.39771077  0.78070540     0.14400
H541        H  0.81179653  0.49649705  0.72973736     0.27700
H542        H  0.81902071  0.49723503  0.77602437     0.27700
C543        C  0.81429178  0.13075930  0.60185113     0.88000
C544        C  0.85189405  0.11236896  0.58313934    -0.52200
C545        C  0.84091702  0.08498801  0.58491634     0.10900
C546        C  0.79183079  0.07859071  0.60543274     0.21900
C547        C  0.75450719  0.12346760  0.59364459    -0.52900
C548        C  0.74241688  0.09615091  0.59554287     0.11000
C549        C  0.82021695  0.11969684  0.63124090    -0.52500
C550        C  0.80829560  0.09249488  0.63320701     0.11600
H551        H  0.88516661  0.12042931  0.56978432     0.16100
H552        H  0.78227023  0.05640554  0.60695886     0.01900
H553        H  0.72478955  0.13842687  0.58652941     0.16400
H554        H  0.83307472  0.13222296  0.64888837     0.16200
N555        N  0.41822831  0.07376875  0.50576579    -0.35100
N556        N  0.50554374  0.07156137  0.96238936    -0.55600
N557        N  0.58732003  0.07050831  0.50641210    -0.35100
N558        N  0.49952893  0.06909975  0.54985645    -0.55600
C559        C  0.38850944  0.06930220  0.98257491     0.28500
C560        C  0.38516910  0.06672559  0.52777230     0.28500
C561        C  0.62066873  0.06528809  0.98367087     0.28500
C562        C  0.61771766  0.06576081  0.52914238     0.28500
C563        C  0.46206413  0.07872134  0.94668747     0.37100
C564        C  0.55258579  0.07568941  0.94682799     0.37100
C565        C  0.45270708  0.07458068  0.56552899     0.37100
C566        C  0.54385580  0.07476184  0.56594953     0.37100
C567        C  0.33623652  0.05904565  0.98989855    -0.20400
C568        C  0.33407051  0.05741386  0.51840737    -0.20400
C569        C  0.67279852  0.05675176  0.99209604    -0.20400
C570        C  0.67097199  0.05709915  0.52073509    -0.20400
C571        C  0.48137006  0.08684278  0.92069312    -0.21400
C572        C  0.53885434  0.08484059  0.92074219    -0.21400
C573        C  0.46724596  0.08302542  0.59206790    -0.21400
C574        C  0.52502422  0.08319163  0.59232377    -0.21400
C575        C  0.40535762  0.07669703  0.95537498    -0.16800
C576        C  0.39738105  0.07158320  0.55602885    -0.16800
C577        C  0.60078511  0.07193075  0.55705115    -0.16800
C578        C  0.60747506  0.07088767  0.95579972    -0.16800
H579        H  0.30287532  0.05361788  0.97615317     0.16100
H580        H  0.29841785  0.05075024  0.53088521     0.16100
H581        H  0.70903350  0.05165121  0.97898318     0.16100
H582        H  0.70548084  0.05225461  0.53388086     0.16100
H583        H  0.45666246  0.09335672  0.90350393     0.14400
H584        H  0.56726473  0.08968242  0.90361030     0.14400
H585        H  0.43920444  0.08869601  0.60931437     0.14400
H586        H  0.55024576  0.08897900  0.60984184     0.14400
H587        H  0.45664769  0.08355749  0.50668629     0.27700
H588        H  0.54792126  0.07927945  0.50651216     0.27700
C589        C  0.18674728  0.40894202  0.86608770     0.88000
C590        C  0.17274998  0.37896399  0.87168775    -0.52200
C591        C  0.17654143  0.37215946  0.89908081     0.10900
C592        C  0.19376920  0.39661295  0.91843253     0.21900
C593        C  0.14743369  0.42539601  0.88545186    -0.52900
C594        C  0.15079529  0.41976234  0.91294041     0.11000
C595        C  0.24505813  0.41349214  0.87744840    -0.52500
C596        C  0.24933292  0.40699430  0.90470532     0.11600
H597        H  0.16036240  0.36448328  0.85553284     0.16100
H598        H  0.19696020  0.39145177  0.94073203     0.01900
H599        H  0.11820242  0.44028661  0.87788828     0.16400
H600        H  0.27991295  0.42144967  0.86506470     0.16200
N601        N  0.00039866  0.29121688  0.91338559    -0.35100
N602        N  0.91320175  0.24987294  0.91365940    -0.55600
N603        N  0.99906381  0.20799834  0.91262426    -0.35100
N604        N  0.08743008  0.24920166  0.90975980    -0.55600
C605        C  0.95486412  0.30589984  0.90658018     0.28500
C606        C  0.04603749  0.30587042  0.90559647     0.28500
C607        C  0.95306919  0.19337832  0.90596721     0.28500
C608        C  0.04412192  0.19274255  0.90456296     0.28500
C609        C  0.88085448  0.27215854  0.91825957     0.37100
C610        C  0.88021735  0.22800372  0.91824305     0.37100
C611        C  0.11964348  0.27151145  0.91481033     0.37100
C612        C  0.11879117  0.22669823  0.91439350     0.37100
C613        C  0.97180782  0.33007492  0.89429304    -0.20400
C614        C  0.02919382  0.33005668  0.89364156    -0.20400
C615        C  0.96915719  0.16865600  0.89340662    -0.20400
C616        C  0.02655147  0.16825480  0.89251901    -0.20400
C617        C  0.82676424  0.26450134  0.92573991    -0.21400
C618        C  0.82637432  0.23634473  0.92575912    -0.21400
C619        C  0.17236716  0.26314012  0.92238676    -0.21400
C620        C  0.17180728  0.23474260  0.92215616    -0.21400
C621        C  0.89851506  0.29890363  0.91262975    -0.16800
C622        C  0.10219195  0.29899085  0.91084675    -0.16800
C623        C  0.10033210  0.19927440  0.90998439    -0.16800
C624        C  0.89713921  0.20090569  0.91259350    -0.16800
H625        H  0.94558547  0.34620014  0.88671135     0.16100
H626        H  0.05541558  0.34617522  0.88537484     0.16100
H627        H  0.94237876  0.15241635  0.88589360     0.16100
H628        H  0.05240171  0.15164398  0.88421158     0.16100
H629        H  0.79107400  0.27776225  0.92985184     0.14400
H630        H  0.79032102  0.22350843  0.92986636     0.14400
H631        H  0.20753373  0.27610422  0.92736922     0.14400
H632        H  0.20647335  0.22155472  0.92691439     0.14400
H633        H  0.00043246  0.27317683  0.92447666     0.27700
H634        H  0.99977409  0.22635798  0.92395069     0.27700
C635        C  0.26061096  0.09270923  0.91544561     0.88000
C636        C  0.23997776  0.12231990  0.91962177    -0.52200
C637        C  0.18664613  0.12640747  0.91117383     0.10900
C638        C  0.15838360  0.10001143  0.89963779     0.21900
C639        C  0.21739747  0.07511620  0.93101435    -0.52900
C640        C  0.16387962  0.07854472  0.92282853     0.11000
C641        C  0.25263980  0.08593974  0.88451493    -0.52500
C642        C  0.19917695  0.08980409  0.87609530     0.11600
H643        H  0.26573740  0.13872522  0.92789582     0.16100
H644        H  0.11482847  0.10307970  0.89288227     0.01900
H645        H  0.22803473  0.06104562  0.94721671     0.16400
H646        H  0.28601949  0.07827674  0.87063997     0.16200
N647        N  0.17005206  0.00326737  0.79113123    -0.35100
N648        N  0.16342093  0.46167463  0.74680182    -0.55600
N649        N  0.16142037  0.00540822  0.70652478    -0.35100
N650        N  0.16021526  0.04727128  0.75113001    -0.55600
C651        C  0.16359374  0.48031989  0.80624001     0.28500
C652        C  0.16134062  0.02506043  0.80863122     0.28500
C653        C  0.15005718  0.48348298  0.69000614     0.28500
C654        C  0.14958506  0.02800128  0.69210512     0.28500
C655        C  0.17349419  0.44492492  0.76805879     0.37100
C656        C  0.16842590  0.44623215  0.72323961     0.37100
C657        C  0.16896490  0.06283673  0.77425519     0.37100
C658        C  0.16579108  0.06383218  0.72897742     0.37100
C659        C  0.15117970  0.48774620  0.83372903    -0.20400
C660        C  0.14953891  0.01578457  0.83525940    -0.20400
C661        C  0.13095445  0.49225301  0.66469383    -0.20400
C662        C  0.13058034  0.02029744  0.66601215    -0.20400
C663        C  0.18373968  0.41851794  0.75801907    -0.21400
C664        C  0.18058563  0.41935682  0.72955155    -0.21400
C665        C  0.17864840  0.08973386  0.76681330    -0.21400
C666        C  0.17674604  0.09035297  0.73812071    -0.21400
C667        C  0.17130167  0.45292045  0.79641819    -0.16800
C668        C  0.16714618  0.05307236  0.80189902    -0.16800
C669        C  0.15951038  0.05531738  0.70079833    -0.16800
C670        C  0.15989427  0.45584810  0.69626024    -0.16800
H671        H  0.14460351  0.47447779  0.85109151     0.16100
H672        H  0.14113876  0.02790736  0.85403451     0.16100
H673        H  0.11910470  0.47975834  0.64694195     0.16100
H674        H  0.11825221  0.03349014  0.64943614     0.16100
H675        H  0.19229782  0.40052092  0.76995390     0.14400
H676        H  0.18618477  0.40214081  0.71518030     0.14400
H677        H  0.18638609  0.10705519  0.78059287     0.14400
H678        H  0.18254113  0.10825511  0.72546569     0.14400
H679        H  0.18316728  0.00404171  0.77045525     0.27700
H680        H  0.18020078  0.00505723  0.72566971     0.27700
C681        C  0.17971969  0.13176165  0.59390933     0.88000
C682        C  0.16803403  0.12354098  0.62400918    -0.52200
C683        C  0.17769002  0.09661478  0.62857268     0.10900
C684        C  0.19761187  0.08000964  0.60223392     0.21900
C685        C  0.24017273  0.12309579  0.58722834    -0.52900
C686        C  0.24994123  0.09594138  0.59161941     0.11000
C687        C  0.14406123  0.11268525  0.57625649    -0.52500
C688        C  0.15264673  0.08547106  0.58030127     0.11600
H689        H  0.15390657  0.13784712  0.64037589     0.16100
H690        H  0.20534046  0.05795905  0.60583885     0.01900
H691        H  0.27205393  0.13698084  0.57932579     0.16400
H692        H  0.11381022  0.12026640  0.56179921     0.16200
C693        C  0.18161132  0.37182977  0.59196326     0.88000
C694        C  0.14610855  0.38936021  0.57334173    -0.52200
C695        C  0.15341817  0.41684248  0.57707736     0.10900
C696        C  0.19650198  0.42424979  0.59918571     0.21900
C697        C  0.24187044  0.38078848  0.58587839    -0.52900
C698        C  0.24957485  0.40833105  0.58975057     0.11000
C699        C  0.16779630  0.38199922  0.62174635    -0.52500
C700        C  0.17586855  0.40941151  0.62542710     0.11600
H701        H  0.11667910  0.38066645  0.55875962     0.16100
H702        H  0.20297647  0.44663196  0.60225150     0.01900
H703        H  0.27475774  0.36695146  0.57831067     0.16400
H704        H  0.15335628  0.36877584  0.63837318     0.16200
N705        N  0.99656526  0.21089516  0.58867675    -0.35100
N706        N  0.08410190  0.25205547  0.58364639    -0.55600
N707        N  0.99826921  0.29442742  0.58324717    -0.35100
N708        N  0.91046297  0.25339422  0.59158477    -0.55600
C709        C  0.04280263  0.19589966  0.59355920     0.28500
C710        C  0.95166607  0.19640301  0.59784434     0.28500
C711        C  0.04477609  0.30969234  0.58727827     0.28500
C712        C  0.95357788  0.31056115  0.58985787     0.28500
C713        C  0.11612502  0.22954112  0.57958780     0.37100
C714        C  0.11717355  0.27367580  0.57799506     0.37100
C715        C  0.87693950  0.23106562  0.59070116     0.37100
C716        C  0.87780570  0.27549012  0.58734446     0.37100
C717        C  0.02698544  0.17151097  0.60582307    -0.20400
C718        C  0.96968334  0.17182340  0.60851477    -0.20400
C719        C  0.02920436  0.33592591  0.59611051    -0.20400
C720        C  0.97192612  0.33648997  0.59764099    -0.20400
C721        C  0.17000562  0.23684479  0.57131058    -0.21400
C722        C  0.17071335  0.26494077  0.57039156    -0.21400
C723        C  0.82234350  0.23904474  0.58628358    -0.21400
C724        C  0.82288863  0.26719136  0.58415689    -0.21400
C725        C  0.09864568  0.20289879  0.58607357    -0.16800
C726        C  0.89478242  0.20388602  0.59534974    -0.16800
C727        C  0.89661540  0.30304159  0.58814215    -0.16800
C728        C  0.10085673  0.30108749  0.58236555    -0.16800
H729        H  0.05383097  0.15505104  0.61210982     0.16100
H730        H  0.94423609  0.15564823  0.61726397     0.16100
H731        H  0.05611794  0.35303369  0.60103085     0.16100
H732        H  0.94675284  0.35405792  0.60401313     0.16100
H733        H  0.20540473  0.22340307  0.56717935     0.14400
H734        H  0.20668711  0.27751768  0.56532182     0.14400
H735        H  0.78591663  0.22598803  0.58499357     0.14400
H736        H  0.78694526  0.28008635  0.58092099     0.14400
H737        H  0.99547906  0.22916154  0.57811159     0.27700
H738        H  0.99687678  0.27457813  0.57522649     0.27700
C739        C  0.16947876  0.34277032  0.58746073    -0.11700
C740        C  0.14386210  0.32180656  0.58416256    -0.13300
C741        C  0.16591167  0.16045679  0.58926737    -0.11700
C742        C  0.14028500  0.18146062  0.58691256    -0.13300
C743        C  0.16747984  0.42315481  0.65188019    -0.11700
C744        C  0.16266487  0.43658278  0.67306153    -0.13300
C745        C  0.17122410  0.08555761  0.65614687    -0.11700
C746        C  0.16551944  0.07470956  0.67842969    -0.13300
C747        C  0.18300433  0.08252704  0.84798940    -0.11700
C748        C  0.17393894  0.07205053  0.82545113    -0.13300
C749        C  0.16149383  0.15366545  0.91140588    -0.11700
C750        C  0.13862764  0.17593082  0.91109208    -0.13300
C751        C  0.17693058  0.43192037  0.81708611    -0.11700
C752        C  0.18196971  0.41801920  0.83733127    -0.13300
C753        C  0.14177746  0.32192282  0.91090226    -0.11700
C754        C  0.16251838  0.34449908  0.90794471    -0.13300
C755        C  0.30421664  0.08381769  0.58477586    -0.11700
C756        C  0.34921359  0.07680603  0.57471802    -0.13300
C757        C  0.36105499  0.08296758  0.93636896    -0.11700
C758        C  0.31791627  0.08804329  0.92493501    -0.13300
C759        C  0.82993965  0.15998162  0.59966101    -0.11700
C760        C  0.85385211  0.18180555  0.59775603    -0.13300
C761        C  0.68884268  0.08515356  0.58702026    -0.11700
C762        C  0.64576506  0.07809263  0.57616919    -0.13300
C763        C  0.81766948  0.06526967  0.68010393    -0.11700
C764        C  0.81231834  0.07823369  0.65916979    -0.13300
C765        C  0.85559392  0.17945532  0.91210104    -0.11700
C766        C  0.83085952  0.15805251  0.91068773    -0.13300
C767        C  0.69624952  0.08162832  0.92373367    -0.11700
C768        C  0.65423113  0.07500562  0.93639282    -0.13300
C769        C  0.83332225  0.06480547  0.82652209    -0.08500
C770        C  0.82579062  0.07645759  0.84876034    -0.13300
C771        C  0.34343356  0.42892691  0.57013883    -0.11700
C772        C  0.30140203  0.42127360  0.58191176    -0.13300
C773        C  0.30175171  0.41091062  0.91868862    -0.11700
C774        C  0.34505403  0.41591872  0.93026086    -0.13300
C775        C  0.82191118  0.42734903  0.67822296    -0.11700
C776        C  0.81161560  0.41668510  0.65597266    -0.13300
C777        C  0.83105168  0.34704712  0.58985200    -0.11700
C778        C  0.85638043  0.32552272  0.58869121    -0.13300
C779        C  0.67615010  0.41408213  0.57946786    -0.11700
C780        C  0.63422402  0.41985823  0.56751014    -0.13300
C781        C  0.68680316  0.41488844  0.91665688    -0.11700
C782        C  0.64138732  0.42042107  0.92723956    -0.13300
C783        C  0.82600359  0.42057852  0.84770550    -0.11700
C784        C  0.83402723  0.43124559  0.82544223    -0.13300
C785        C  0.85706129  0.32035700  0.91130181    -0.11700
C786        C  0.83114830  0.34132322  0.90931488    -0.13300
N787        N  0.06244724  0.53342537  0.05453780    -0.04600
N788        N  0.09847230  0.54121731  0.07375082    -0.56700
N789        N  0.93356205  0.55155193  0.03698350    -0.04300
N790        N  0.89824442  0.57162388  0.04311456    -0.58800
N791        N  0.93286233  0.53339978  0.05690569    -0.03900
N792        N  0.89642754  0.54105526  0.07702463    -0.56700
N793        N  0.06161019  0.55144889  0.03453967    -0.03500
N794        N  0.09664911  0.57158776  0.03974680    -0.59200
C795        C  0.12002974  0.56501437  0.06400931     0.97600
C796        C  0.87465305  0.56486671  0.06786868     0.97400
N797        N  0.92995918  0.53253874  0.45102945    -0.04800
N798        N  0.89527190  0.54000558  0.43153497    -0.57300
N799        N  0.05928119  0.55149113  0.46809344    -0.02900
N800        N  0.09577831  0.57099100  0.46221075    -0.58500
N801        N  0.05826728  0.53300447  0.44772803    -0.04800
N802        N  0.09429728  0.53979602  0.42749536    -0.57600
N803        N  0.93192289  0.55150911  0.47087507    -0.02500
N804        N  0.89907244  0.57220070  0.46514769    -0.58600
Mn805      Mn  0.99670291  0.55161942  0.00272864     1.18400
C806        C  0.87586782  0.56469724  0.44081429     0.99700
C807        C  0.11705790  0.56366850  0.43678975     1.00300
N808        N  0.93475539  0.96681913  0.05643881    -0.04800
N809        N  0.89877074  0.96013147  0.07666760    -0.61100
N810        N  0.06145472  0.94901234  0.03256581    -0.03600
N811        N  0.09661630  0.92900878  0.03714431    -0.61800
N812        N  0.06268170  0.96758196  0.05287689    -0.04300
N813        N  0.09918277  0.96035892  0.07164879    -0.61400
N814        N  0.93445986  0.94807049  0.03627559    -0.03200
N815        N  0.89839513  0.92845087  0.04237467    -0.62100
Mn816      Mn  0.99807456  0.00033919  0.05598985     1.10700
C817        C  0.87684286  0.93603485  0.06766663     1.00900
C818        C  0.12037550  0.93636142  0.06129762     1.01000
N819        N  0.05784285  0.96676138  0.44731285    -0.04300
N820        N  0.09248294  0.96043727  0.42633960    -0.59700
N821        N  0.93046110  0.94830385  0.46977984    -0.03700
N822        N  0.89484890  0.92841027  0.46444315    -0.56400
N823        N  0.92884860  0.96687102  0.45031504    -0.05000
N824        N  0.89181189  0.95973188  0.43138135    -0.59300
N825        N  0.05933401  0.94768017  0.46624556    -0.04000
N826        N  0.09523111  0.92801712  0.45831959    -0.56500
Mn827      Mn  0.99369316  0.49968964  0.44856627     1.20200
Mn828      Mn  0.99642794  0.94792118  0.50119524     1.10100
Cl829      Cl  0.99619987  0.49987502  0.00214301    -0.84400
C830        C  0.11606844  0.93640637  0.43337847     0.97900
C831        C  0.87034011  0.93576888  0.44067278     0.97700
C832        C  0.81560560  0.87006167  0.40634992     0.88000
C833        C  0.75411955  0.87715116  0.41227386    -0.52200
C834        C  0.74241480  0.90436367  0.40964829     0.10900
C835        C  0.79420318  0.92198509  0.40131509     0.21900
C836        C  0.82906911  0.88058079  0.37720150    -0.52900
C837        C  0.81761735  0.90762390  0.37432058     0.11000
C838        C  0.84816806  0.88849605  0.42608722    -0.52500
C839        C  0.83798271  0.91579190  0.42367226     0.11600
H840        H  0.72291205  0.86216590  0.41854261     0.16100
H841        H  0.78504032  0.94411703  0.39912753     0.01900
H842        H  0.84581029  0.86768917  0.36021776     0.16400
H843        H  0.87829471  0.88048211  0.44036556     0.16200
C844        C  0.73273245  0.90839599  0.08888817     0.88000
C845        C  0.77636997  0.92593713  0.07367279    -0.52200
C846        C  0.82971542  0.92161713  0.08151893     0.10900
C847        C  0.83465336  0.89967053  0.10413845     0.21900
C848        C  0.75203094  0.87868175  0.08382144    -0.52900
C849        C  0.80536152  0.87398686  0.09193380     0.11000
C850        C  0.74113470  0.91427425  0.11992265    -0.52500
C851        C  0.79452294  0.90966120  0.12802715     0.11600
H852        H  0.76614106  0.94052971  0.05786035     0.16100
H853        H  0.87819761  0.89602882  0.11062170     0.01900
H854        H  0.72581295  0.86279887  0.07489116     0.16400
H855        H  0.70829785  0.92208615  0.13403851     0.16200
N856        N  0.57594182  0.92478327  0.99777588    -0.35100
N857        N  0.49225804  0.92615779  0.45463097    -0.55600
N858        N  0.40613729  0.92992004  0.49906881    -0.35100
N859        N  0.49019301  0.93165478  0.04204572    -0.55600
C860        C  0.60862236  0.92969633  0.47495307     0.28500
C861        C  0.60708222  0.93004476  0.02033835     0.28500
C862        C  0.37341878  0.92989918  0.47658391     0.28500
C863        C  0.37275135  0.93469860  0.02185971     0.28500
C864        C  0.53835894  0.92144263  0.43819242     0.37100
C865        C  0.44701386  0.92075363  0.43911064     0.37100
C866        C  0.53428075  0.92648055  0.05806022     0.37100
C867        C  0.44409366  0.93045747  0.05884053     0.37100
C868        C  0.66114211  0.93817243  0.48324725    -0.20400
C869        C  0.66016690  0.93827591  0.01181393    -0.20400
C870        C  0.31850868  0.93537887  0.48520175    -0.20400
C871        C  0.31811898  0.93844395  0.01362608    -0.20400
C872        C  0.52238924  0.91370685  0.41166305    -0.21400
C873        C  0.46456379  0.91319610  0.41225871    -0.21400
C874        C  0.51644245  0.92283352  0.08541696    -0.21400
C875        C  0.45918758  0.92545939  0.08594156    -0.21400
C876        C  0.59430350  0.92455149  0.44692520    -0.16800
C877        C  0.59037806  0.92577561  0.04832474    -0.16800
C878        C  0.38855944  0.93296748  0.04997641    -0.16800
C879        C  0.39032686  0.92277077  0.44885132    -0.16800
H880        H  0.69686746  0.94340493  0.47008608     0.16100
H881        H  0.69468059  0.94377209  0.02483199     0.16100
H882        H  0.28197973  0.93634353  0.47246848     0.16100
H883        H  0.28124927  0.94208324  0.02678010     0.16100
H884        H  0.54951051  0.90878904  0.39383529     0.14400
H885        H  0.43846018  0.90785279  0.39493165     0.14400
H886        H  0.54196769  0.91873658  0.10310323     0.14400
H887        H  0.43176331  0.92350082  0.10410329     0.14400
H888        H  0.53634257  0.91616358  0.49803944     0.27700
H889        H  0.44795012  0.92483228  0.49900102     0.27700
C890        C  0.81744223  0.62894968  0.40785518     0.88000
C891        C  0.82788935  0.61773918  0.37823540    -0.52200
C892        C  0.81827049  0.59040981  0.37543429     0.10900
C893        C  0.79922425  0.57656734  0.40280536     0.21900
C894        C  0.75735495  0.62096538  0.41572595    -0.52900
C895        C  0.74775785  0.59344464  0.41322140     0.11000
C896        C  0.85393167  0.61162561  0.42627442    -0.52500
C897        C  0.84463182  0.58414353  0.42387089     0.11600
H898        H  0.84176041  0.63031368  0.36096772     0.16100
H899        H  0.79134184  0.55421465  0.40069807     0.01900
H900        H  0.72610659  0.63546746  0.42375686     0.16400
H901        H  0.88468491  0.62043691  0.44007815     0.16200
N902        N  0.82971929  0.99648185  0.20979680    -0.35100
N903        N  0.83878979  0.53993759  0.25200094    -0.55600
N904        N  0.84460837  0.99754316  0.29314004    -0.35100
N905        N  0.84152387  0.95408006  0.25112951    -0.55600
C906        C  0.83890567  0.51873248  0.19402427     0.28500
C907        C  0.84133649  0.97413661  0.19354216     0.28500
C908        C  0.85980151  0.51997888  0.30791205     0.28500
C909        C  0.86026847  0.97556325  0.30753616     0.28500
C910        C  0.82092907  0.55467170  0.23048086     0.37100
C911        C  0.82823726  0.55504334  0.27548219     0.37100
C912        C  0.82575019  0.93853586  0.22909808     0.37100
C913        C  0.83106033  0.93938246  0.27425606     0.37100
C914        C  0.85691538  0.51045140  0.16744385    -0.20400
C915        C  0.85847499  0.98232024  0.16713885    -0.20400
C916        C  0.88677367  0.51221305  0.33170253    -0.20400
C917        C  0.88700914  0.98406474  0.33147909    -0.20400
C918        C  0.79984437  0.57963372  0.24024108    -0.21400
C919        C  0.80430832  0.57982632  0.26886701    -0.21400
C920        C  0.80617273  0.91345332  0.23817387    -0.21400
C921        C  0.80932448  0.91403831  0.26688765    -0.21400
C922        C  0.82616984  0.54600574  0.20224680    -0.16800
C923        C  0.83106674  0.94673529  0.20106019    -0.16800
C924        C  0.84341064  0.94856921  0.30155240    -0.16800
C925        C  0.84220873  0.54673873  0.30243660    -0.16800
H926        H  0.86669475  0.52330595  0.14988498     0.16100
H927        H  0.86966100  0.96936452  0.14927884     0.16100
H928        H  0.90230669  0.52544505  0.34810884     0.16100
H929        H  0.90279156  0.97131778  0.34766615     0.16100
H930        H  0.78281995  0.59587162  0.22804686     0.14400
H931        H  0.79155370  0.59625944  0.28313108     0.14400
H932        H  0.79098837  0.89662521  0.22547457     0.14400
H933        H  0.79730957  0.89771072  0.28070536     0.14400
H934        H  0.81179669  0.99649709  0.22973738     0.27700
H935        H  0.81902133  0.99723507  0.27602426     0.27700
C936        C  0.81429178  0.63075930  0.10185116     0.88000
C937        C  0.85189400  0.61236893  0.08313937    -0.52200
C938        C  0.84091700  0.58498799  0.08491641     0.10900
C939        C  0.79183075  0.57859073  0.10543285     0.21900
C940        C  0.75450720  0.62346763  0.09364466    -0.52900
C941        C  0.74241682  0.59615095  0.09554298     0.11000
C942        C  0.82021700  0.61969687  0.13124094    -0.52500
C943        C  0.80829561  0.59249493  0.13320710     0.11600
H944        H  0.88516645  0.62042928  0.06978430     0.16100
H945        H  0.78227006  0.55640559  0.10695902     0.01900
H946        H  0.72478963  0.63842693  0.08652947     0.16400
H947        H  0.83307473  0.63222304  0.14888839     0.16200
N948        N  0.41822825  0.57376867  0.00576581    -0.35100
N949        N  0.50554385  0.57156128  0.46238934    -0.55600
N950        N  0.58731980  0.57050828  0.00641212    -0.35100
N951        N  0.49952882  0.56909970  0.04985647    -0.55600
C952        C  0.38850951  0.56930216  0.48257494     0.28500
C953        C  0.38516901  0.56672556  0.02777231     0.28500
C954        C  0.62066883  0.56528801  0.48367083     0.28500
C955        C  0.61771749  0.56576084  0.02914240     0.28500
C956        C  0.46206422  0.57872116  0.44668744     0.37100
C957        C  0.55258587  0.57568915  0.44682790     0.37100
C958        C  0.45270698  0.57458064  0.06552901     0.37100
C959        C  0.54385569  0.57476181  0.06594956     0.37100
C960        C  0.33623647  0.55904574  0.48989861    -0.20400
C961        C  0.33407038  0.55741386  0.01840737    -0.20400
C962        C  0.67279867  0.55675177  0.49209597    -0.20400
C963        C  0.67097183  0.55709926  0.02073512    -0.20400
C964        C  0.48137010  0.58684242  0.42069302    -0.21400
C965        C  0.53885437  0.58484014  0.42074203    -0.21400
C966        C  0.46724585  0.58302538  0.09206792    -0.21400
C967        C  0.52502411  0.58319158  0.09232380    -0.21400
C968        C  0.40535770  0.57669693  0.45537499    -0.16800
C969        C  0.39738095  0.57158322  0.05602885    -0.16800
C970        C  0.60078500  0.57193078  0.05705116    -0.16800
C971        C  0.60747513  0.57088749  0.45579966    -0.16800
H972        H  0.30287516  0.55361806  0.47615327     0.16100
H973        H  0.29841767  0.55075026  0.03088518     0.16100
H974        H  0.70903357  0.55165118  0.47898308     0.16100
H975        H  0.70548073  0.55225482  0.03388089     0.16100
H976        H  0.45666250  0.59335633  0.40350382     0.14400
H977        H  0.56726469  0.58968180  0.40361007     0.14400
H978        H  0.43920432  0.58869599  0.10931438     0.14400
H979        H  0.55024566  0.58897898  0.10984187     0.14400
H980        H  0.45664763  0.58355741  0.00668632     0.27700
H981        H  0.54792102  0.57927934  0.00651220     0.27700
C982        C  0.18674732  0.90894196  0.36608771     0.88000
C983        C  0.17274996  0.87896394  0.37168778    -0.52200
C984        C  0.17654151  0.87215944  0.39908084     0.10900
C985        C  0.19376939  0.89661291  0.41843255     0.21900
C986        C  0.14743380  0.92539598  0.38545190    -0.52900
C987        C  0.15079550  0.91976232  0.41294046     0.11000
C988        C  0.24505822  0.91349206  0.37744838    -0.52500
C989        C  0.24933307  0.90699424  0.40470531     0.11600
H990        H  0.16036222  0.86448322  0.35553291     0.16100
H991        H  0.19696045  0.89145167  0.44073203     0.01900
H992        H  0.11820248  0.94028659  0.37788836     0.16400
H993        H  0.27991301  0.92144960  0.36506465     0.16200
N994        N  0.00039860  0.79121693  0.41338559    -0.35100
N995        N  0.91320169  0.74987295  0.41365933    -0.55600
N996        N  0.99906379  0.70799840  0.41262429    -0.35100
N997        N  0.08743009  0.74920175  0.40975982    -0.55600
C998        C  0.95486407  0.80589986  0.40658016     0.28500
C999        C  0.04603743  0.80587046  0.40559649     0.28500
C1000       C  0.95306917  0.69337835  0.40596725     0.28500
C1001       C  0.04412193  0.69274260  0.40456300     0.28500
C1002       C  0.88085443  0.77215854  0.41825953     0.37100
C1003       C  0.88021732  0.72800373  0.41824304     0.37100
C1004       C  0.11964349  0.77151154  0.41481032     0.37100
C1005       C  0.11879119  0.72669833  0.41439352     0.37100
C1006       C  0.97180778  0.83007493  0.39429296    -0.20400
C1007       C  0.02919379  0.83005671  0.39364153    -0.20400
C1008       C  0.96915717  0.66865604  0.39340668    -0.20400
C1009       C  0.02655145  0.66825483  0.39251910    -0.20400
C1010       C  0.82676420  0.76450133  0.42573989    -0.21400
C1011       C  0.82637430  0.73634473  0.42575916    -0.21400
C1012       C  0.17236720  0.76314024  0.42238674    -0.21400
C1013       C  0.17180730  0.73474272  0.42215620    -0.21400
C1014       C  0.89851501  0.79890365  0.41262976    -0.16800
C1015       C  0.10219191  0.79899092  0.41084678    -0.16800
C1016       C  0.10033214  0.69927449  0.40998440    -0.16800
C1017       C  0.89713919  0.70090571  0.41259355    -0.16800
H1018       H  0.94558546  0.84620015  0.38671123     0.16100
H1019       H  0.05541562  0.84617522  0.38537481     0.16100
H1020       H  0.94237872  0.65241640  0.38589363     0.16100
H1021       H  0.05240167  0.65164400  0.38421170     0.16100
H1022       H  0.79107394  0.77776223  0.42985180     0.14400
H1023       H  0.79032104  0.72350843  0.42986648     0.14400
H1024       H  0.20753375  0.77610435  0.42736920     0.14400
H1025       H  0.20647335  0.72155486  0.42691453     0.14400
H1026       H  0.00043237  0.77317684  0.42447670     0.27700
H1027       H  0.99977404  0.72635801  0.42395068     0.27700
C1028       C  0.26061102  0.59270923  0.41544559     0.88000
C1029       C  0.23997785  0.62231992  0.41962173    -0.52200
C1030       C  0.18664624  0.62640754  0.41117379     0.10900
C1031       C  0.15838368  0.60001150  0.39963776     0.21900
C1032       C  0.21739748  0.57511622  0.43101432    -0.52900
C1033       C  0.16387962  0.57854481  0.42282854     0.11000
C1034       C  0.25263989  0.58593972  0.38451492    -0.52500
C1035       C  0.19917705  0.58980410  0.37609528     0.11600
H1036       H  0.26573746  0.63872521  0.42789586     0.16100
H1037       H  0.11482856  0.60307978  0.39288223     0.01900
H1038       H  0.22803475  0.56104557  0.44721661     0.16400
H1039       H  0.28601957  0.57827670  0.37063997     0.16200
N1040       N  0.17005209  0.50326740  0.29113129    -0.35100
N1041       N  0.16342077  0.96167461  0.24680182    -0.55600
N1042       N  0.16142049  0.50540820  0.20652473    -0.35100
N1043       N  0.16021535  0.54727130  0.25113001    -0.55600
C1044       C  0.16359402  0.98031986  0.30624005     0.28500
C1045       C  0.16134106  0.52506048  0.30863127     0.28500
C1046       C  0.15005718  0.98348292  0.19000607     0.28500
C1047       C  0.14958504  0.52800125  0.19210510     0.28500
C1048       C  0.17349413  0.94492491  0.26805880     0.37100
C1049       C  0.16842572  0.94623211  0.22323961     0.37100
C1050       C  0.16896486  0.56283679  0.27425517     0.37100
C1051       C  0.16579096  0.56383218  0.22897740     0.37100
C1052       C  0.15118040  0.98774615  0.33372912    -0.20400
C1053       C  0.14954002  0.51578464  0.33525953    -0.20400
C1054       C  0.13095446  0.99225296  0.16469376    -0.20400
C1055       C  0.13058030  0.52029737  0.16601213    -0.20400
C1056       C  0.18373960  0.91851793  0.25801910    -0.21400
C1057       C  0.18058545  0.91935680  0.22955158    -0.21400
C1058       C  0.17864809  0.58973395  0.26681325    -0.21400
C1059       C  0.17674569  0.59035301  0.23812065    -0.21400
C1060       C  0.17130182  0.95292042  0.29641821    -0.16800
C1061       C  0.16714634  0.55307242  0.30189901    -0.16800
C1062       C  0.15951022  0.55531737  0.20079832    -0.16800
C1063       C  0.15989417  0.95584804  0.19626021    -0.16800
H1064       H  0.14460463  0.97447774  0.35109164     0.16100
H1065       H  0.14114055  0.52790743  0.35403469     0.16100
H1066       H  0.11910458  0.97975831  0.14694187     0.16100
H1067       H  0.11825203  0.53349005  0.14943613     0.16100
H1068       H  0.19229778  0.90052095  0.26995396     0.14400
H1069       H  0.18618448  0.90214077  0.21518034     0.14400
H1070       H  0.18638556  0.60705534  0.28059278     0.14400
H1071       H  0.18254047  0.60825513  0.22546558     0.14400
H1072       H  0.18316690  0.50404172  0.27045521     0.27700
H1073       H  0.18020094  0.50505722  0.22566966     0.27700
C1074       C  0.17971947  0.63176167  0.09390940     0.88000
C1075       C  0.16803390  0.62354099  0.12400927    -0.52200
C1076       C  0.17768994  0.59661479  0.12857272     0.10900
C1077       C  0.19761179  0.58000968  0.10223393     0.21900
C1078       C  0.24017254  0.62309587  0.08722840    -0.52900
C1079       C  0.24994110  0.59594145  0.09161942     0.11000
C1080       C  0.14406102  0.61268529  0.07625656    -0.52500
C1081       C  0.15264660  0.58547111  0.08030130     0.11600
H1082       H  0.15390658  0.63784711  0.14037603     0.16100
H1083       H  0.20534049  0.55795908  0.10583879     0.01900
H1084       H  0.27205368  0.63698098  0.07932593     0.16400
H1085       H  0.11380992  0.62026642  0.06179931     0.16200
C1086       C  0.18161130  0.87182975  0.09196326     0.88000
C1087       C  0.14610849  0.88936018  0.07334173    -0.52200
C1088       C  0.15341809  0.91684246  0.07707736     0.10900
C1089       C  0.19650192  0.92424977  0.09918568     0.21900
C1090       C  0.24187039  0.88078847  0.08587835    -0.52900
C1091       C  0.24957474  0.90833104  0.08975050     0.11000
C1092       C  0.16779636  0.88199921  0.12174635    -0.52500
C1093       C  0.17586857  0.90941149  0.12542708     0.11600
H1094       H  0.11667914  0.88066641  0.05875957     0.16100
H1095       H  0.20297642  0.94663195  0.10225145     0.01900
H1096       H  0.27475772  0.86695149  0.07831060     0.16400
H1097       H  0.15335640  0.86877586  0.13837322     0.16200
N1098       N  0.99656509  0.71089520  0.08867673    -0.35100
N1099       N  0.08410182  0.75205545  0.08364636    -0.55600
N1100       N  0.99826913  0.79442744  0.08324731    -0.35100
N1101       N  0.91046291  0.75339421  0.09158492    -0.55600
C1102       C  0.04280246  0.69589970  0.09355921     0.28500
C1103       C  0.95166594  0.69640305  0.09784443     0.28500
C1104       C  0.04477604  0.80969236  0.08727835     0.28500
C1105       C  0.95357780  0.81056118  0.08985800     0.28500
C1106       C  0.11612485  0.72954109  0.07958767     0.37100
C1107       C  0.11717343  0.77367578  0.07799499     0.37100
C1108       C  0.87693942  0.73106561  0.09070129     0.37100
C1109       C  0.87780565  0.77549011  0.08734460     0.37100
C1110       C  0.02698530  0.67151108  0.10582319    -0.20400
C1111       C  0.96968322  0.67182351  0.10851493    -0.20400
C1112       C  0.02920430  0.83592597  0.09611051    -0.20400
C1113       C  0.97192605  0.83649002  0.09764106    -0.20400
C1114       C  0.17000540  0.73684472  0.07131031    -0.21400
C1115       C  0.17071315  0.76494072  0.07039131    -0.21400
C1116       C  0.82234344  0.73904472  0.08628371    -0.21400
C1117       C  0.82288857  0.76719133  0.08415701    -0.21400
C1118       C  0.09864548  0.70289878  0.08607352    -0.16800
C1119       C  0.89478232  0.70388604  0.09534986    -0.16800
C1120       C  0.89661533  0.80304159  0.08814230    -0.16800
C1121       C  0.10085668  0.80108747  0.08236563    -0.16800
H1122       H  0.05383086  0.65505119  0.11211001     0.16100
H1123       H  0.94423600  0.65564839  0.11726422     0.16100
H1124       H  0.05611785  0.85303379  0.10103074     0.16100
H1125       H  0.94675280  0.85405798  0.10401321     0.16100
H1126       H  0.20540444  0.72340298  0.06717898     0.14400
H1127       H  0.20668689  0.77751761  0.06532147     0.14400
H1128       H  0.78591662  0.72598797  0.08499370     0.14400
H1129       H  0.78694520  0.78008631  0.08092111     0.14400
H1130       H  0.99547887  0.72916149  0.07811152     0.27700
H1131       H  0.99687669  0.77457813  0.07522671     0.27700
C1132       C  0.16947877  0.84277028  0.08746081    -0.11700
C1133       C  0.14386210  0.82180652  0.08416269    -0.13300
C1134       C  0.16591136  0.66045677  0.08926742    -0.11700
C1135       C  0.14028471  0.68146060  0.08691258    -0.13300
C1136       C  0.16747977  0.92315477  0.15188016    -0.11700
C1137       C  0.16266470  0.93658271  0.17306150    -0.13300
C1138       C  0.17122411  0.58555761  0.15614691    -0.11700
C1139       C  0.16551938  0.57470954  0.17842971    -0.13300
C1140       C  0.18300450  0.58252712  0.34798935    -0.11700
C1141       C  0.17393909  0.57205063  0.32545107    -0.13300
C1142       C  0.16149388  0.65366554  0.41140596    -0.11700
C1143       C  0.13862768  0.67593091  0.41109216    -0.13300
C1144       C  0.17693066  0.93192031  0.31708611    -0.11700
C1145       C  0.18196971  0.91801912  0.33733127    -0.13300
C1146       C  0.14177742  0.82192287  0.41090235    -0.11700
C1147       C  0.16251844  0.84449909  0.40794479    -0.13300
C1148       C  0.30421652  0.58381778  0.08477582    -0.11700
C1149       C  0.34921350  0.57680612  0.07471799    -0.13300
C1150       C  0.36105503  0.58296753  0.43636900    -0.11700
C1151       C  0.31791630  0.58804326  0.42493506    -0.13300
C1152       C  0.82993964  0.65998160  0.09966101    -0.11700
C1153       C  0.85385205  0.68180554  0.09775610    -0.13300
C1154       C  0.68884260  0.58515361  0.08702032    -0.11700
C1155       C  0.64576501  0.57809268  0.07616919    -0.13300
C1156       C  0.81766930  0.56526965  0.18010399    -0.11700
C1157       C  0.81231823  0.57823376  0.15916990    -0.13300
C1158       C  0.85559392  0.67945534  0.41210117    -0.11700
C1159       C  0.83085957  0.65805253  0.41068787    -0.13300
C1160       C  0.69624955  0.58162827  0.42373361    -0.11700
C1161       C  0.65423120  0.57500551  0.43639277    -0.13300
C1162       C  0.83332240  0.56480549  0.32652212    -0.08500
C1163       C  0.82579069  0.57645762  0.34876036    -0.13300
C1164       C  0.34343342  0.92892685  0.07013874    -0.11700
C1165       C  0.30140185  0.92127360  0.08191166    -0.13300
C1166       C  0.30175186  0.91091057  0.41868862    -0.11700
C1167       C  0.34505417  0.91591866  0.43026086    -0.13300
C1168       C  0.82191107  0.92734910  0.17822295    -0.11700
C1169       C  0.81161537  0.91668523  0.15597265    -0.13300
C1170       C  0.83105164  0.84704712  0.08985213    -0.11700
C1171       C  0.85638037  0.82552272  0.08869134    -0.13300
C1172       C  0.67615004  0.91408213  0.07946781    -0.11700
C1173       C  0.63422394  0.91985830  0.06751012    -0.13300
C1174       C  0.68680330  0.91488845  0.41665684    -0.11700
C1175       C  0.64138744  0.92042103  0.42723954    -0.13300
C1176       C  0.82600400  0.92057848  0.34770544    -0.11700
C1177       C  0.83402773  0.93124556  0.32544219    -0.13300
C1178       C  0.85706124  0.82035701  0.41130188    -0.11700
C1179       C  0.83114830  0.84132322  0.40931486    -0.13300
N1180       N  0.06244737  0.53342532  0.55453774    -0.04600
N1181       N  0.09847252  0.54121720  0.57375075    -0.56700
N1182       N  0.93356205  0.55155186  0.53698351    -0.04300
N1183       N  0.89824453  0.57162384  0.54311458    -0.58800
N1184       N  0.93286230  0.53339971  0.55690571    -0.03900
N1185       N  0.89642758  0.54105525  0.57702467    -0.56700
N1186       N  0.06161030  0.55144888  0.53453965    -0.03500
N1187       N  0.09664928  0.57158773  0.53974680    -0.59200
C1188       C  0.12002996  0.56501428  0.56400928     0.97600
C1189       C  0.87465319  0.56486672  0.56786871     0.97400
N1190       N  0.92995899  0.53253872  0.95102950    -0.04800
N1191       N  0.89527177  0.54000560  0.93153502    -0.57300
N1192       N  0.05928107  0.55149108  0.96809344    -0.02900
N1193       N  0.09577820  0.57099094  0.96221074    -0.58500
N1194       N  0.05826710  0.53300442  0.94772804    -0.04800
N1195       N  0.09429713  0.53979594  0.92749537    -0.57600
N1196       N  0.93192276  0.55150908  0.97087512    -0.02500
N1197       N  0.89907239  0.57220071  0.96514774    -0.58600
Mn1198     Mn  0.99670299  0.55161942  0.50272863     1.18400
C1199       C  0.87586777  0.56469728  0.94081433     0.99700
C1200       C  0.11705778  0.56366842  0.93678975     1.00300
N1201       N  0.93475543  0.96681911  0.55643885    -0.04800
N1202       N  0.89877087  0.96013138  0.57666766    -0.61100
N1203       N  0.06145482  0.94901238  0.53256576    -0.03600
N1204       N  0.09661643  0.92900882  0.53714426    -0.61800
N1205       N  0.06268168  0.96758196  0.55287688    -0.04300
N1206       N  0.09918270  0.96035891  0.57164880    -0.61400
N1207       N  0.93445998  0.94807049  0.53627561    -0.03200
N1208       N  0.89839539  0.92845081  0.54237470    -0.62100
Mn1209     Mn  0.99807450  0.00033919  0.55598988     1.10700
C1210       C  0.87684309  0.93603475  0.56766667     1.00900
C1211       C  0.12037553  0.93636143  0.56129761     1.01000
N1212       N  0.05784283  0.96676139  0.94731282    -0.04300
N1213       N  0.09248285  0.96043728  0.92633955    -0.59700
N1214       N  0.93046101  0.94830386  0.96977986    -0.03700
N1215       N  0.89484880  0.92841029  0.96444312    -0.56400
N1216       N  0.92884859  0.96687104  0.95031506    -0.05000
N1217       N  0.89181193  0.95973193  0.93138134    -0.59300
N1218       N  0.05933399  0.94768017  0.96624553    -0.04000
N1219       N  0.09523103  0.92801711  0.95831951    -0.56500
Mn1220     Mn  0.99369297  0.49968962  0.94856629     1.20200
Mn1221     Mn  0.99642787  0.94792114  0.00119524     1.10100
Cl1222     Cl  0.99620001  0.49987502  0.50214299    -0.84400
C1223       C  0.11606831  0.93640638  0.93337839     0.97900
C1224       C  0.87034009  0.93576893  0.94067274     0.97700
C1225       C  0.81560546  0.87006170  0.90634990     0.88000
C1226       C  0.75411942  0.87715118  0.91227389    -0.52200
C1227       C  0.74241469  0.90436370  0.90964835     0.10900
C1228       C  0.79420300  0.92198514  0.90131512     0.21900
C1229       C  0.82906889  0.88058085  0.87720149    -0.52900
C1230       C  0.81761711  0.90762397  0.87432060     0.11000
C1231       C  0.84816800  0.88849610  0.92608717    -0.52500
C1232       C  0.83798263  0.91579195  0.92367222     0.11600
H1233       H  0.72291190  0.86216591  0.91854262     0.16100
H1234       H  0.78504003  0.94411709  0.89912757     0.01900
H1235       H  0.84581011  0.86768924  0.86021775     0.16400
H1236       H  0.87829478  0.88048217  0.94036545     0.16200
C1237       C  0.73273257  0.90839594  0.58888816     0.88000
C1238       C  0.77637010  0.92593710  0.57367279    -0.52200
C1239       C  0.82971557  0.92161706  0.58151891     0.10900
C1240       C  0.83465351  0.89967046  0.60413840     0.21900
C1241       C  0.75203111  0.87868171  0.58382136    -0.52900
C1242       C  0.80536170  0.87398683  0.59193370     0.11000
C1243       C  0.74113487  0.91427415  0.61992266    -0.52500
C1244       C  0.79452313  0.90966109  0.62802713     0.11600
H1245       H  0.76614117  0.94052971  0.55786037     0.16100
H1246       H  0.87819779  0.89602871  0.61062159     0.01900
H1247       H  0.72581317  0.86279884  0.57489105     0.16400
H1248       H  0.70829809  0.92208603  0.63403857     0.16200
N1249       N  0.57594194  0.92478319  0.49777583    -0.35100
N1250       N  0.49225800  0.92615785  0.95463096    -0.55600
N1251       N  0.40613725  0.92991995  0.99906875    -0.35100
N1252       N  0.49019310  0.93165487  0.54204571    -0.55600
C1253       C  0.60862225  0.92969641  0.97495312     0.28500
C1254       C  0.60708234  0.93004467  0.52033830     0.28500
C1255       C  0.37341868  0.92989914  0.97658387     0.28500
C1256       C  0.37275138  0.93469866  0.52185977     0.28500
C1257       C  0.53835892  0.92144267  0.93819242     0.37100
C1258       C  0.44701382  0.92075368  0.93911063     0.37100
C1259       C  0.53428084  0.92648059  0.55806019     0.37100
C1260       C  0.44409376  0.93045758  0.55884053     0.37100
C1261       C  0.66114199  0.93817254  0.98324728    -0.20400
C1262       C  0.66016700  0.93827581  0.51181390    -0.20400
C1263       C  0.31850861  0.93537892  0.98520171    -0.20400
C1264       C  0.31811896  0.93844392  0.51362613    -0.20400
C1265       C  0.52238920  0.91370690  0.91166304    -0.21400
C1266       C  0.46456374  0.91319617  0.91225872    -0.21400
C1267       C  0.51644255  0.92283362  0.58541694    -0.21400
C1268       C  0.45918768  0.92545951  0.58594157    -0.21400
C1269       C  0.59430346  0.92455155  0.94692524    -0.16800
C1270       C  0.59037816  0.92577553  0.54832469    -0.16800
C1271       C  0.38855951  0.93296760  0.54997645    -0.16800
C1272       C  0.39032678  0.92277072  0.94885130    -0.16800
H1273       H  0.69686733  0.94340504  0.97008611     0.16100
H1274       H  0.69468063  0.94377200  0.52483199     0.16100
H1275       H  0.28197962  0.93634363  0.97246847     0.16100
H1276       H  0.28124921  0.94208316  0.52678013     0.16100
H1277       H  0.54951041  0.90878910  0.89383525     0.14400
H1278       H  0.43846004  0.90785288  0.89493169     0.14400
H1279       H  0.54196782  0.91873672  0.60310322     0.14400
H1280       H  0.43176340  0.92350101  0.60410331     0.14400
H1281       H  0.53634244  0.91616367  0.99803949     0.27700
H1282       H  0.44794995  0.92483211  0.99900095     0.27700
C1283       C  0.81744209  0.62894969  0.90785511     0.88000
C1284       C  0.82788921  0.61773915  0.87823534    -0.52200
C1285       C  0.81827042  0.59040978  0.87543428     0.10900
C1286       C  0.79922421  0.57656735  0.90280536     0.21900
C1287       C  0.75735484  0.62096538  0.91572593    -0.52900
C1288       C  0.74775776  0.59344463  0.91322141     0.11000
C1289       C  0.85393152  0.61162566  0.92627440    -0.52500
C1290       C  0.84463175  0.58414357  0.92387091     0.11600
H1291       H  0.84176037  0.63031361  0.86096765     0.16100
H1292       H  0.79134192  0.55421465  0.90069806     0.01900
H1293       H  0.72610652  0.63546746  0.92375689     0.16400
H1294       H  0.88468468  0.62043701  0.94007815     0.16200
N1295       N  0.82971907  0.99648187  0.70979682    -0.35100
N1296       N  0.83878973  0.53993754  0.75200096    -0.55600
N1297       N  0.84460787  0.99754320  0.79314004    -0.35100
N1298       N  0.84152360  0.95408010  0.75112953    -0.55600
C1299       C  0.83890568  0.51873251  0.69402432     0.28500
C1300       C  0.84133642  0.97413662  0.69354219     0.28500
C1301       C  0.85980134  0.51997880  0.80791205     0.28500
C1302       C  0.86026813  0.97556330  0.80753611     0.28500
C1303       C  0.82092911  0.55467170  0.73048089     0.37100
C1304       C  0.82823708  0.55504324  0.77548221     0.37100
C1305       C  0.82574998  0.93853588  0.72909810     0.37100
C1306       C  0.83105986  0.93938253  0.77425608     0.37100
C1307       C  0.85691534  0.51045144  0.66744391    -0.20400
C1308       C  0.85847516  0.98232026  0.66713892    -0.20400
C1309       C  0.88677366  0.51221296  0.83170249    -0.20400
C1310       C  0.88700901  0.98406479  0.83147899    -0.20400
C1311       C  0.79984428  0.57963368  0.74024112    -0.21400
C1312       C  0.80430814  0.57982622  0.76886705    -0.21400
C1313       C  0.80617238  0.91345336  0.73817390    -0.21400
C1314       C  0.80932394  0.91403839  0.76688769    -0.21400
C1315       C  0.82616998  0.54600578  0.70224684    -0.16800
C1316       C  0.83106667  0.94673529  0.70106020    -0.16800
C1317       C  0.84341013  0.94856928  0.80155241    -0.16800
C1318       C  0.84220860  0.54673864  0.80243661    -0.16800
H1319       H  0.86669470  0.52330600  0.64988505     0.16100
H1320       H  0.86966132  0.96936455  0.64927893     0.16100
H1321       H  0.90230671  0.52544493  0.84810881     0.16100
H1322       H  0.90279148  0.97131782  0.84766604     0.16100
H1323       H  0.78281979  0.59587157  0.72804692     0.14400
H1324       H  0.79155351  0.59625930  0.78313117     0.14400
H1325       H  0.79098801  0.89662526  0.72547461     0.14400
H1326       H  0.79730881  0.89771084  0.78070541     0.14400
H1327       H  0.81179634  0.99649712  0.72973734     0.27700
H1328       H  0.81902053  0.99723513  0.77602436     0.27700
C1329       C  0.81429189  0.63075930  0.60185114     0.88000
C1330       C  0.85189408  0.61236895  0.58313933    -0.52200
C1331       C  0.84091707  0.58498800  0.58491636     0.10900
C1332       C  0.79183089  0.57859071  0.60543281     0.21900
C1333       C  0.75450729  0.62346762  0.59364466    -0.52900
C1334       C  0.74241696  0.59615093  0.59554296     0.11000
C1335       C  0.82021716  0.61969686  0.63124092    -0.52500
C1336       C  0.80829583  0.59249490  0.63320707     0.11600
H1337       H  0.88516663  0.62042930  0.56978430     0.16100
H1338       H  0.78227024  0.55640556  0.60695892     0.01900
H1339       H  0.72478976  0.63842691  0.58652939     0.16400
H1340       H  0.83307490  0.63222303  0.64888837     0.16200
N1341       N  0.41822830  0.57376877  0.50576585    -0.35100
N1342       N  0.50554378  0.57156133  0.96238934    -0.55600
N1343       N  0.58732002  0.57050821  0.50641211    -0.35100
N1344       N  0.49952897  0.56909975  0.54985647    -0.55600
C1345       C  0.38850946  0.56930208  0.98257489     0.28500
C1346       C  0.38516911  0.56672564  0.52777236     0.28500
C1347       C  0.62066869  0.56528813  0.98367086     0.28500
C1348       C  0.61771772  0.56576079  0.52914238     0.28500
C1349       C  0.46206416  0.57872123  0.94668744     0.37100
C1350       C  0.55258580  0.57568929  0.94682794     0.37100
C1351       C  0.45270715  0.57458065  0.56552905     0.37100
C1352       C  0.54385588  0.57476176  0.56594956     0.37100
C1353       C  0.33623646  0.55904565  0.98989855    -0.20400
C1354       C  0.33407043  0.55741397  0.51840743    -0.20400
C1355       C  0.67279855  0.55675194  0.99209602    -0.20400
C1356       C  0.67097205  0.55709916  0.52073507    -0.20400
C1357       C  0.48137006  0.58684260  0.92069306    -0.21400
C1358       C  0.53885434  0.58484038  0.92074210    -0.21400
C1359       C  0.46724606  0.58302529  0.59206798    -0.21400
C1360       C  0.52502432  0.58319146  0.59232383    -0.21400
C1361       C  0.40535765  0.57669692  0.95537496    -0.16800
C1362       C  0.39738110  0.57158322  0.55602890    -0.16800
C1363       C  0.60078521  0.57193070  0.55705115    -0.16800
C1364       C  0.60747503  0.57088760  0.95579970    -0.16800
H1365       H  0.30287520  0.55361796  0.97615318     0.16100
H1366       H  0.29841774  0.55075038  0.53088527     0.16100
H1367       H  0.70903354  0.55165145  0.97898315     0.16100
H1368       H  0.70548098  0.55225472  0.53388082     0.16100
H1369       H  0.45666242  0.59335651  0.90350387     0.14400
H1370       H  0.56726472  0.58968214  0.90361019     0.14400
H1371       H  0.43920460  0.58869585  0.60931449     0.14400
H1372       H  0.55024590  0.58897880  0.60984190     0.14400
H1373       H  0.45664779  0.58355751  0.50668633     0.27700
H1374       H  0.54792121  0.57927927  0.50651219     0.27700
C1375       C  0.18674726  0.90894203  0.86608767     0.88000
C1376       C  0.17274992  0.87896400  0.87168775    -0.52200
C1377       C  0.17654146  0.87215948  0.89908080     0.10900
C1378       C  0.19376930  0.89661297  0.91843251     0.21900
C1379       C  0.14743373  0.92539603  0.88545184    -0.52900
C1380       C  0.15079540  0.91976236  0.91294040     0.11000
C1381       C  0.24505813  0.91349214  0.87744835    -0.52500
C1382       C  0.24933298  0.90699430  0.90470527     0.11600
H1383       H  0.16036228  0.86448330  0.85553285     0.16100
H1384       H  0.19696037  0.89145179  0.94073200     0.01900
H1385       H  0.11820238  0.94028660  0.87788827     0.16400
H1386       H  0.27991291  0.92144965  0.86506460     0.16200
N1387       N  0.00039867  0.79121690  0.91338555    -0.35100
N1388       N  0.91320172  0.74987296  0.91365942    -0.55600
N1389       N  0.99906380  0.70799838  0.91262427    -0.35100
N1390       N  0.08743011  0.74920168  0.90975987    -0.55600
C1391       C  0.95486414  0.80589987  0.90658011     0.28500
C1392       C  0.04603754  0.80587044  0.90559647     0.28500
C1393       C  0.95306921  0.69337835  0.90596721     0.28500
C1394       C  0.04412193  0.69274260  0.90456298     0.28500
C1395       C  0.88085443  0.77215856  0.91825952     0.37100
C1396       C  0.88021731  0.72800373  0.91824305     0.37100
C1397       C  0.11964351  0.77151147  0.91481038     0.37100
C1398       C  0.11879120  0.72669826  0.91439359     0.37100
C1399       C  0.97180792  0.83007496  0.89429299    -0.20400
C1400       C  0.02919393  0.83005670  0.89364156    -0.20400
C1401       C  0.96915723  0.66865603  0.89340661    -0.20400
C1402       C  0.02655149  0.66825484  0.89251901    -0.20400
C1403       C  0.82676415  0.76450136  0.92573980    -0.21400
C1404       C  0.82637424  0.73634475  0.92575908    -0.21400
C1405       C  0.17236718  0.76314016  0.92238684    -0.21400
C1406       C  0.17180730  0.73474264  0.92215630    -0.21400
C1407       C  0.89851504  0.79890365  0.91262968    -0.16800
C1408       C  0.10219200  0.79899087  0.91084678    -0.16800
C1409       C  0.10033211  0.69927443  0.90998445    -0.16800
C1410       C  0.89713920  0.70090571  0.91259350    -0.16800
H1411       H  0.94558567  0.84620022  0.88671132     0.16100
H1412       H  0.05541575  0.84617523  0.88537488     0.16100
H1413       H  0.94237884  0.65241636  0.88589359     0.16100
H1414       H  0.05240173  0.65164402  0.88421158     0.16100
H1415       H  0.79107389  0.77776227  0.92985166     0.14400
H1416       H  0.79032093  0.72350846  0.92986635     0.14400
H1417       H  0.20753372  0.77610428  0.92736931     0.14400
H1418       H  0.20647333  0.72155477  0.92691464     0.14400
H1419       H  0.00043246  0.77317687  0.92447663     0.27700
H1420       H  0.99977406  0.72635804  0.92395071     0.27700
C1421       C  0.26061088  0.59270925  0.91544564     0.88000
C1422       C  0.23997766  0.62231992  0.91962176    -0.52200
C1423       C  0.18664603  0.62640748  0.91117381     0.10900
C1424       C  0.15838350  0.60001143  0.89963779     0.21900
C1425       C  0.21739735  0.57511623  0.93101438    -0.52900
C1426       C  0.16387949  0.57854474  0.92282856     0.11000
C1427       C  0.25263974  0.58593972  0.88451497    -0.52500
C1428       C  0.19917688  0.58980405  0.87609533     0.11600
H1429       H  0.26573726  0.63872525  0.92789582     0.16100
H1430       H  0.11482837  0.60307969  0.89288226     0.01900
H1431       H  0.22803461  0.56104565  0.94721673     0.16400
H1432       H  0.28601944  0.57827673  0.87064001     0.16200
N1433       N  0.17005198  0.50326737  0.79113127    -0.35100
N1434       N  0.16342081  0.96167461  0.74680177    -0.55600
N1435       N  0.16142031  0.50540824  0.70652482    -0.35100
N1436       N  0.16021512  0.54727130  0.75113002    -0.55600
C1437       C  0.16359385  0.98031989  0.80623998     0.28500
C1438       C  0.16134068  0.52506044  0.80863125     0.28500
C1439       C  0.15005721  0.98348298  0.69000608     0.28500
C1440       C  0.14958500  0.52800127  0.69210513     0.28500
C1441       C  0.17349408  0.94492491  0.76805875     0.37100
C1442       C  0.16842573  0.94623211  0.72323957     0.37100
C1443       C  0.16896478  0.56283675  0.77425521     0.37100
C1444       C  0.16579092  0.56383219  0.72897742     0.37100
C1445       C  0.15117981  0.98774617  0.83372901    -0.20400
C1446       C  0.14953903  0.51578460  0.83525944    -0.20400
C1447       C  0.13095454  0.99225306  0.66469377    -0.20400
C1448       C  0.13058035  0.52029738  0.66601214    -0.20400
C1449       C  0.18373954  0.91851792  0.75801907    -0.21400
C1450       C  0.18058544  0.91935677  0.72955155    -0.21400
C1451       C  0.17864830  0.58973388  0.76681331    -0.21400
C1452       C  0.17674590  0.59035299  0.73812071    -0.21400
C1453       C  0.17130166  0.95292044  0.79641815    -0.16800
C1454       C  0.16714617  0.55307236  0.80189903    -0.16800
C1455       C  0.15951025  0.55531738  0.70079833    -0.16800
C1456       C  0.15989417  0.95584808  0.69626019    -0.16800
H1457       H  0.14460367  0.97447774  0.85109148     0.16100
H1458       H  0.14113899  0.52790739  0.85403455     0.16100
H1459       H  0.11910488  0.97975847  0.64694181     0.16100
H1460       H  0.11825237  0.53349004  0.64943607     0.16100
H1461       H  0.19229771  0.90052093  0.76995393     0.14400
H1462       H  0.18618458  0.90214073  0.71518033     0.14400
H1463       H  0.18638610  0.60705520  0.78059287     0.14400
H1464       H  0.18254104  0.60825512  0.72546569     0.14400
H1465       H  0.18316715  0.50404170  0.77045527     0.27700
H1466       H  0.18020071  0.50505727  0.72566976     0.27700
C1467       C  0.17971962  0.63176160  0.59390940     0.88000
C1468       C  0.16803402  0.62354093  0.62400926    -0.52200
C1469       C  0.17769003  0.59661473  0.62857271     0.10900
C1470       C  0.19761196  0.58000961  0.60223394     0.21900
C1471       C  0.24017269  0.62309581  0.58722843    -0.52900
C1472       C  0.24994127  0.59594140  0.59161945     0.11000
C1473       C  0.14406122  0.61268519  0.57625655    -0.52500
C1474       C  0.15264679  0.58547101  0.58030131     0.11600
H1475       H  0.15390669  0.63784706  0.64037600     0.16100
H1476       H  0.20534067  0.55795902  0.60583886     0.01900
H1477       H  0.27205386  0.63698094  0.57932598     0.16400
H1478       H  0.11381020  0.62026629  0.56179924     0.16200
C1479       C  0.18161147  0.87182974  0.59196321     0.88000
C1480       C  0.14610854  0.88936018  0.57334175    -0.52200
C1481       C  0.15341814  0.91684246  0.57707738     0.10900
C1482       C  0.19650207  0.92424976  0.59918568     0.21900
C1483       C  0.24187053  0.88078848  0.58587825    -0.52900
C1484       C  0.24957488  0.90833104  0.58975044     0.11000
C1485       C  0.16779663  0.88199916  0.62174633    -0.52500
C1486       C  0.17586886  0.90941144  0.62542710     0.11600
H1487       H  0.11667908  0.88066642  0.55875965     0.16100
H1488       H  0.20297658  0.94663193  0.60225149     0.01900
H1489       H  0.27475787  0.86695149  0.57831054     0.16400
H1490       H  0.15335664  0.86877578  0.63837317     0.16200
N1491       N  0.99656523  0.71089515  0.58867675    -0.35100
N1492       N  0.08410194  0.75205543  0.58364646    -0.55600
N1493       N  0.99826931  0.79442746  0.58324721    -0.35100
N1494       N  0.91046305  0.75339421  0.59158489    -0.55600
C1495       C  0.04280259  0.69589966  0.59355921     0.28500
C1496       C  0.95166606  0.69640303  0.59784439     0.28500
C1497       C  0.04477621  0.80969236  0.58727829     0.28500
C1498       C  0.95357799  0.81056116  0.58985798     0.28500
C1499       C  0.11612503  0.72954107  0.57958782     0.37100
C1500       C  0.11717360  0.77367576  0.57799513     0.37100
C1501       C  0.87693954  0.73106562  0.59070120     0.37100
C1502       C  0.87780584  0.77549011  0.58734452     0.37100
C1503       C  0.02698540  0.67151100  0.60582312    -0.20400
C1504       C  0.96968332  0.67182346  0.60851489    -0.20400
C1505       C  0.02920449  0.83592594  0.59611056    -0.20400
C1506       C  0.97192624  0.83648997  0.59764115    -0.20400
C1507       C  0.17000562  0.73684472  0.57131058    -0.21400
C1508       C  0.17071336  0.76494071  0.57039159    -0.21400
C1509       C  0.82234357  0.73904475  0.58628356    -0.21400
C1510       C  0.82288878  0.76719137  0.58415689    -0.21400
C1511       C  0.09864564  0.70289873  0.58607358    -0.16800
C1512       C  0.89478243  0.70388603  0.59534977    -0.16800
C1513       C  0.89661552  0.80304158  0.58814222    -0.16800
C1514       C  0.10085684  0.80108748  0.58236558    -0.16800
H1515       H  0.05383096  0.65505108  0.61210985     0.16100
H1516       H  0.94423609  0.65564833  0.61726417     0.16100
H1517       H  0.05611805  0.85303374  0.60103086     0.16100
H1518       H  0.94675300  0.85405792  0.60401336     0.16100
H1519       H  0.20540474  0.72340302  0.56717928     0.14400
H1520       H  0.20668708  0.77751762  0.56532178     0.14400
H1521       H  0.78591668  0.72598805  0.58499355     0.14400
H1522       H  0.78694547  0.78008641  0.58092102     0.14400
H1523       H  0.99547902  0.72916152  0.57811155     0.27700
H1524       H  0.99687688  0.77457814  0.57522647     0.27700
C1525       C  0.16947901  0.84277028  0.58746071    -0.11700
C1526       C  0.14386228  0.82180654  0.58416257    -0.13300
C1527       C  0.16591152  0.66045671  0.58926746    -0.11700
C1528       C  0.14028489  0.68146055  0.58691265    -0.13300
C1529       C  0.16748004  0.92315473  0.65188019    -0.11700
C1530       C  0.16266484  0.93658274  0.67306148    -0.13300
C1531       C  0.17122402  0.58555756  0.65614687    -0.11700
C1532       C  0.16551931  0.57470952  0.67842968    -0.13300
C1533       C  0.18300432  0.58252701  0.84798942    -0.11700
C1534       C  0.17393892  0.57205053  0.82545114    -0.13300
C1535       C  0.16149370  0.65366546  0.91140593    -0.11700
C1536       C  0.13862758  0.67593084  0.91109219    -0.13300
C1537       C  0.17693045  0.93192034  0.81708606    -0.11700
C1538       C  0.18196961  0.91801917  0.83733122    -0.13300
C1539       C  0.14177757  0.82192282  0.91090226    -0.11700
C1540       C  0.16251854  0.84449907  0.90794470    -0.13300
C1541       C  0.30421673  0.58381776  0.58477590    -0.11700
C1542       C  0.34921369  0.57680608  0.57471808    -0.13300
C1543       C  0.36105498  0.58296756  0.93636898    -0.11700
C1544       C  0.31791623  0.58804332  0.92493505    -0.13300
C1545       C  0.82993977  0.65998160  0.59966101    -0.11700
C1546       C  0.85385216  0.68180554  0.59775603    -0.13300
C1547       C  0.68884282  0.58515353  0.58702028    -0.11700
C1548       C  0.64576523  0.57809256  0.57616919    -0.13300
C1549       C  0.81766953  0.56526970  0.68010402    -0.11700
C1550       C  0.81231848  0.57823375  0.65916988    -0.13300
C1551       C  0.85559393  0.67945533  0.91210105    -0.11700
C1552       C  0.83085947  0.65805253  0.91068774    -0.13300
C1553       C  0.69624949  0.58162827  0.92373365    -0.11700
C1554       C  0.65423109  0.57500557  0.93639280    -0.13300
C1555       C  0.83332254  0.56480542  0.82652211    -0.08500
C1556       C  0.82579087  0.57645755  0.84876036    -0.13300
C1557       C  0.34343359  0.92892692  0.57013882    -0.11700
C1558       C  0.30140207  0.92127359  0.58191171    -0.13300
C1559       C  0.30175180  0.91091051  0.91868858    -0.11700
C1560       C  0.34505411  0.91591855  0.93026085    -0.13300
C1561       C  0.82191125  0.92734905  0.67822295    -0.11700
C1562       C  0.81161561  0.91668512  0.65597265    -0.13300
C1563       C  0.83105184  0.84704711  0.58985199    -0.11700
C1564       C  0.85638056  0.82552271  0.58869122    -0.13300
C1565       C  0.67615013  0.91408205  0.57946780    -0.11700
C1566       C  0.63422404  0.91985819  0.56751009    -0.13300
C1567       C  0.68680325  0.91488851  0.91665690    -0.11700
C1568       C  0.64138743  0.92042112  0.92723960    -0.13300
C1569       C  0.82600370  0.92057857  0.84770546    -0.11700
C1570       C  0.83402724  0.93124566  0.82544221    -0.13300
C1571       C  0.85706125  0.82035702  0.91130174    -0.11700
C1572       C  0.83114821  0.84132323  0.90931478    -0.13300
loop_ 
_geom_bond_atom_site_label_1 
_geom_bond_atom_site_label_2 
_geom_bond_distance 
_geom_bond_site_symmetry_2 
_ccdc_geom_bond_type 
N1            N2   1.330       .  A
N1            N7   1.317       .  A
N1         Mn816   2.233   1_455  S
N2            C9   1.359       .  A
N3            N5   1.318       .  A
N3            N4   1.317       .  A
N3          Mn19   2.202       .  S
N4           C10   1.349       .  A
N5            N6   1.330       .  A
N5         Mn816   2.244       .  S
N6           C10   1.361       .  A
N7            N8   1.317       .  A
N7          Mn19   2.209   1_455  S
N8            C9   1.352       .  A
C9          C295   1.491       .  S
C10         C152   1.488       .  S
N11          N17   1.317       .  A
N11          N12   1.326       .  A
N11         Mn41   2.212   1_545  S
N12          C20   1.354       .  A
N13          N14   1.322       .  A
N13          N15   1.318       .  A
N13        Mn412   2.206   1_455  S
N14          C21   1.351       .  A
N15          N16   1.328       .  A
N15         Mn41   2.244   1_445  S
N16          C21   1.359       .  A
N17          N18   1.318       .  A
N17        Mn412   2.209       .  S
N18          C20   1.352       .  A
Mn19        N406   2.206   1_654  S
Mn19        N410   2.209   1_554  S
Mn19        Cl43   2.527   1_545  S
C20         C111   1.480       .  S
C21         C247   1.487       .  S
N22          N23   1.326       .  A
N22          N28   1.319       .  A
N22         Mn30   2.231       .  S
N23          C31   1.356       .  A
N24          N26   1.319       .  A
N24          N25   1.315       .  A
N24        Mn435   2.196   1_455  S
N25          C32   1.349       .  A
N26          N27   1.326       .  A
N26         Mn30   2.224   1_455  S
N27          C32   1.356       .  A
N28          N29   1.322       .  A
N28        Mn435   2.212       .  S
N29          C31   1.351       .  A
Mn30        N787   2.233   1_655  S
Mn30        N791   2.244       .  S
Mn30       Cl829   2.588       .  S
C31          C60   1.479       .  S
C32         C302   1.474       .  S
N33          N34   1.318       .  A
N33          N39   1.317       .  A
N33        Mn827   2.221   1_455  S
N34          C44   1.356       .  A
N35          N36   1.318       .  A
N35          N37   1.318       .  A
N35         Mn42   2.215       .  S
N36          C45   1.354       .  A
N37          N38   1.329       .  A
N37        Mn827   2.232       .  S
N38          C45   1.357       .  A
N39          N40   1.330       .  A
N39         Mn42   2.222   1_455  S
N40          C44   1.356       .  A
Mn41        N819   2.221   1_655  S
Mn41        N823   2.232       .  S
Mn41       Cl436   2.576       .  S
Mn42        N417   2.196   1_655  S
Mn42        N421   2.212       .  S
Mn42      Cl1222   2.537       .  S
Cl43       Mn816   2.588   1_565  S
Cl43       Mn434   2.576   1_554  S
Cl43      Mn1221   2.537       .  S
C44         C201   1.495       .  S
C45          C53   1.490       .  S
C46          C47   1.528       .  S
C46          C52   1.524       .  S
C46          C50   1.528       .  S
C46         C393   1.463       .  S
C47          H54   1.087       .  S
C47          C48   1.367       .  D
C48          C49   1.556       .  S
C48         C388   1.454       .  S
C49          C53   1.555       .  S
C49          C51   1.551       .  S
C49          H55   1.111       .  S
C50          H56   1.087       .  S
C50          C51   1.360       .  D
C51         C390   1.448       .  S
C52          H57   1.087       .  S
C52          C53   1.363       .  D
C58          C59   1.530       .  S
C58          C64   1.531       .  S
C58          C62   1.535       .  S
C58         C386   1.467       .  S
C59          H66   1.086       .  S
C59          C60   1.358       .  D
C60          C61   1.550       .  S
C61          C65   1.546       .  S
C61          C63   1.550       .  S
C61          H67   1.111       .  S
C62          H68   1.087       .  S
C62          C63   1.365       .  D
C63         C384   1.452       .  S
C64          H69   1.087       .  S
C64          C65   1.366       .  D
C65         C383   1.449       .  S
N70          C75   1.353   1_556  A
N70         C467   1.354       .  A
N70         H495   1.036       .  S
N71          C78   1.355       .  A
N71          C79   1.354       .  A
N72          C76   1.352       .  A
N72         C470   1.353       .  A
N72         H103   1.030       .  S
N73          C80   1.350       .  A
N73          C81   1.350       .  A
C74         N463   1.354       .  A
C74          C82   1.389       .  A
C74          C90   1.416       .  A
C75          C91   1.412       .  A
C75          C83   1.385       .  A
C76          C84   1.390       .  A
C76          C93   1.418       .  A
C77         N465   1.353   1_554  A
C77          C92   1.417       .  A
C77          C85   1.389       .  A
C78          C90   1.421       .  A
C78          C86   1.386       .  A
C79          C93   1.424       .  A
C79          C87   1.388       .  A
C80          C88   1.385       .  A
C80          C91   1.408       .  A
C81          C89   1.388       .  A
C81          C92   1.412       .  A
C82         C476   1.372       .  A
C82          H94   1.082       .  S
C83         C475   1.372   1_554  A
C83          H95   1.080       .  S
C84         C478   1.370       .  A
C84          H96   1.082       .  S
C85         C477   1.370   1_554  A
C85          H97   1.083       .  S
C86          C87   1.383       .  A
C86          H98   1.082       .  S
C87          H99   1.082       .  S
C88          C89   1.375       .  A
C88         H100   1.082       .  S
C89         H101   1.082       .  S
C90         C389   1.461       .  S
C91         C387   1.449       .  S
C92         C378   1.446       .  S
C93         C381   1.458       .  S
H102        N463   1.036       .  S
C104        C105   1.528       .  S
C104        C110   1.528       .  S
C104        C108   1.528       .  S
C104        C373   1.462       .  S
C105        H112   1.087       .  S
C105        C106   1.359       .  D
C106        C107   1.549       .  S
C106        C377   1.445       .  S
C107        C111   1.545       .  S
C107        C109   1.546       .  S
C107        H113   1.111       .  S
C108        H114   1.087       .  S
C108        C109   1.367       .  D
C109        C374   1.443       .  S
C110        H115   1.087       .  S
C110        C111   1.364       .  D
N116        C121   1.353       .  A
N116        C906   1.353       .  A
N116        H148   1.038       .  S
N117        C124   1.351       .  A
N117        C125   1.352       .  A
N118        C123   1.348       .  A
N118        C908   1.349       .  A
N118        H149   1.039       .  S
N119        C126   1.352       .  A
N119        C127   1.353       .  A
C120        N902   1.353   1_545  A
C120        C128   1.388       .  A
C120        C136   1.412       .  A
C121        C137   1.414       .  A
C121        C129   1.389       .  A
C122        N904   1.349   1_545  A
C122        C130   1.388       .  A
C122        C139   1.405       .  A
C123        C138   1.405       .  A
C123        C131   1.388       .  A
C124        C136   1.414       .  A
C124        C132   1.387       .  A
C125        C139   1.414       .  A
C125        C133   1.386       .  A
C126        C134   1.386       .  A
C126        C137   1.416       .  A
C127        C135   1.386       .  A
C127        C138   1.416       .  A
C128        C915   1.374   1_545  A
C128        H140   1.083       .  S
C129        C914   1.374       .  A
C129        H141   1.083       .  S
C130        C917   1.375   1_545  A
C130        H142   1.083       .  S
C131        C916   1.375       .  A
C131        H143   1.083       .  S
C132        C133   1.382       .  A
C132        H144   1.082       .  S
C133        H145   1.082       .  S
C134        C135   1.383       .  A
C134        H146   1.082       .  S
C135        H147   1.082       .  S
C136        C370   1.454       .  S
C137        C382   1.455       .  S
C138        C391   1.453       .  S
C139        C376   1.451       .  S
C150        C151   1.531       .  S
C150        C156   1.533       .  S
C150        C154   1.534       .  S
C150        C366   1.481       .  S
C151        H158   1.087       .  S
C151        C152   1.367       .  D
C152        C153   1.548       .  S
C153        C157   1.545       .  S
C153        C155   1.551       .  S
C153        H159   1.111       .  S
C154        H160   1.086       .  S
C154        C155   1.370       .  D
C155        C368   1.456       .  S
C156        H161   1.087       .  S
C156        C157   1.364       .  D
C157        C371   1.447       .  S
N162        C167   1.353       .  A
N162        C559   1.352   1_554  A
N162        H194   1.038       .  S
N163        C170   1.352       .  A
N163        C171   1.351       .  A
N164        C169   1.353       .  A
N164        C561   1.354   1_554  A
N164        H195   1.035       .  S
N165        C172   1.355       .  A
N165        C173   1.355       .  A
C166        N555   1.352       .  A
C166        C174   1.386       .  A
C166        C182   1.411       .  A
C167        C183   1.412       .  A
C167        C175   1.388       .  A
C168        N557   1.354       .  A
C168        C176   1.388       .  A
C168        C185   1.417       .  A
C169        C184   1.416       .  A
C169        C177   1.388       .  A
C170        C182   1.412       .  A
C170        C178   1.385       .  A
C171        C185   1.414       .  A
C171        C179   1.388       .  A
C172        C180   1.386       .  A
C172        C183   1.419       .  A
C173        C181   1.387       .  A
C173        C184   1.421       .  A
C174        C568   1.373       .  A
C174        H186   1.080       .  S
C175        C567   1.373   1_554  A
C175        H187   1.083       .  S
C176        C570   1.375       .  A
C176        H188   1.083       .  S
C177        C569   1.375   1_554  A
C177        H189   1.083       .  S
C178        C179   1.378       .  A
C178        H190   1.082       .  S
C179        H191   1.082       .  S
C180        C181   1.382       .  A
C180        H192   1.082       .  S
C181        H193   1.082       .  S
C182        C364   1.455       .  S
C183        C363   1.459       .  S
C184        C369   1.462       .  S
C185        C375   1.452       .  S
C196        C197   1.530       .  S
C196        C202   1.527       .  S
C196        C200   1.521       .  S
C196        C359   1.467       .  S
C197        H204   1.086       .  S
C197        C198   1.370       .  D
C198        C199   1.561       .  S
C198        C361   1.462       .  S
C199        C203   1.557       .  S
C199        C201   1.559       .  S
C199        H205   1.111       .  S
C200        H206   1.084       .  S
C200        C201   1.359       .  D
C202        H207   1.087       .  S
C202        C203   1.361       .  D
C203        C380   1.450       .  S
N208        C213   1.354       .  A
N208        C212   1.355   1_455  A
N208        H240   1.039       .  S
N209        C216   1.346       .  A
N209        C217   1.346       .  A
N210        C215   1.353   1_655  A
N210        C214   1.354       .  A
N210        H241   1.039       .  S
N211        C218   1.357       .  A
N211        C219   1.356       .  A
C212        C220   1.387       .  A
C212        C228   1.414       .  A
C213        C229   1.415       .  A
C213        C221   1.389       .  A
C214        C222   1.388       .  A
C214        C231   1.413       .  A
C215        C230   1.412       .  A
C215        C223   1.388       .  A
C216        C228   1.403       .  A
C216        C224   1.386       .  A
C217        C231   1.403       .  A
C217        C225   1.386       .  A
C218        C226   1.386       .  A
C218        C229   1.424       .  A
C219        C227   1.387       .  A
C219        C230   1.424       .  A
C220        C221   1.372   1_655  A
C220        H232   1.082       .  S
C221        H233   1.082       .  S
C222        C223   1.372   1_655  A
C222        H234   1.082       .  S
C223        H235   1.082       .  S
C224        C225   1.375       .  A
C224        H236   1.082       .  S
C225        H237   1.082       .  S
C226        C227   1.387       .  A
C226        H238   1.082       .  S
C227        H239   1.082       .  S
C228        C392   1.446       .  S
C229        C360   1.467       .  S
C230        C357   1.465       .  S
C231        C372   1.445       .  S
C242        C243   1.535       .  S
C242        C248   1.533       .  S
C242        C246   1.533       .  S
C242        C365   1.476       .  S
C243        H250   1.087       .  S
C243        C244   1.365       .  D
C244        C245   1.555       .  S
C244        C356   1.461       .  S
C245        C249   1.547       .  S
C245        C247   1.554       .  S
C245        H251   1.111       .  S
C246        H252   1.085       .  S
C246        C247   1.361       .  D
C248        H253   1.087       .  S
C248        C249   1.366       .  D
C249        C354   1.452       .  S
N254        C259   1.355       .  A
N254       C1044   1.355   1_545  A
N254        H286   1.035       .  S
N255        C262   1.349       .  A
N255        C263   1.349       .  A
N256        C261   1.350       .  A
N256       C1046   1.352   1_545  A
N256        H287   1.036       .  S
N257        C264   1.354       .  A
N257        C265   1.354       .  A
C258       N1040   1.355       .  A
C258        C266   1.386       .  A
C258        C274   1.420       .  A
C259        C275   1.419       .  A
C259        C267   1.388       .  A
C260       N1042   1.352       .  A
C260        C268   1.387       .  A
C260        C277   1.410       .  A
C261        C276   1.412       .  A
C261        C269   1.390       .  A
C262        C274   1.409       .  A
C262        C270   1.387       .  A
C263        C277   1.408       .  A
C263        C271   1.386       .  A
C264        C272   1.387       .  A
C264        C275   1.420       .  A
C265        C273   1.386       .  A
C265        C276   1.420       .  A
C266       C1053   1.370       .  A
C266        H278   1.075       .  S
C267       C1052   1.370   1_545  A
C267        H279   1.082       .  S
C268       C1055   1.370       .  A
C268        H280   1.083       .  S
C269       C1054   1.370   1_545  A
C269        H281   1.082       .  S
C270        C271   1.373       .  A
C270        H282   1.082       .  S
C271        H283   1.082       .  S
C272        C273   1.382       .  A
C272        H284   1.082       .  S
C273        H285   1.082       .  S
C274        C358   1.452       .  S
C275        C355   1.460       .  S
C276        C353   1.452       .  S
C277        C351   1.443       .  S
C288        C289   1.527       .  S
C288        C294   1.524       .  S
C288        C292   1.530       .  S
C288        C348   1.463       .  S
C289        H296   1.087       .  S
C289        C290   1.359       .  D
C290        C291   1.552       .  S
C290        C352   1.446       .  S
C291        C295   1.554       .  S
C291        C293   1.554       .  S
C291        H297   1.111       .  S
C292        H298   1.086       .  S
C292        C293   1.369       .  D
C293        C362   1.453       .  S
C294        H299   1.087       .  S
C294        C295   1.364       .  D
C300        C301   1.526       .  S
C300        C306   1.532       .  S
C300        C304   1.528       .  S
C300        C346   1.462       .  S
C301        H308   1.087       .  S
C301        C302   1.363       .  D
C302        C303   1.539       .  S
C303        C307   1.537       .  S
C303        C305   1.540       .  S
C303        H309   1.112       .  S
C304        H310   1.086       .  S
C304        C305   1.367       .  D
C305        C379   1.436       .  S
C306        H311   1.087       .  S
C306        C307   1.361       .  D
C307        C350   1.434       .  S
N312        C317   1.355       .  A
N312        C316   1.355   1_655  A
N312        H344   1.037       .  S
N313        C320   1.347       .  A
N313        C321   1.347       .  A
N314        C319   1.354       .  A
N314        C318   1.356   1_655  A
N314        H345   1.037       .  S
N315        C322   1.355       .  A
N315        C323   1.354       .  A
C316        C324   1.388       .  A
C316        C332   1.417       .  A
C317        C333   1.418       .  A
C317        C325   1.389       .  A
C318        C326   1.389       .  A
C318        C335   1.417       .  A
C319        C334   1.415       .  A
C319        C327   1.388       .  A
C320        C332   1.406       .  A
C320        C328   1.387       .  A
C321        C335   1.404       .  A
C321        C329   1.386       .  A
C322        C330   1.386       .  A
C322        C333   1.419       .  A
C323        C331   1.386       .  A
C323        C334   1.419       .  A
C324        C325   1.373   1_455  A
C324        H336   1.082       .  S
C325        H337   1.082       .  S
C326        C327   1.370   1_455  A
C326        H338   1.081       .  S
C327        H339   1.082       .  S
C328        C329   1.374       .  A
C328        H340   1.082       .  S
C329        H341   1.083       .  S
C330        C331   1.381       .  A
C330        H342   1.082       .  S
C331        H343   1.082       .  S
C332        C349   1.447       .  S
C333        C367   1.461       .  S
C334        C385   1.459       .  S
C335        C347   1.446       .  S
C346        C347   1.203       .  T
C348        C349   1.204       .  T
C350        C351   1.202       .  T
C352        C353   1.209       .  T
C354        C355   1.213       .  T
C356        C357   1.218       .  T
C358        C359   1.207       .  T
C360        C361   1.219       .  T
C362        C363   1.213       .  T
C364        C365   1.211       .  T
C366        C367   1.214       .  T
C368        C369   1.215       .  T
C370        C371   1.210       .  T
C372        C373   1.203       .  T
C374        C375   1.208       .  T
C376        C377   1.209       .  T
C378        C379   1.203       .  T
C380        C381   1.212       .  T
C382        C383   1.211       .  T
C384        C385   1.213       .  T
C386        C387   1.206       .  T
C388        C389   1.214       .  T
C390        C391   1.210       .  T
C392        C393   1.204       .  T
N394        N395   1.330       .  A
N394        N400   1.317       .  A
N394      Mn1209   2.233   1_455  S
N395        C402   1.359       .  A
N396        N398   1.318       .  A
N396        N397   1.317       .  A
N396       Mn412   2.202       .  S
N397        C403   1.349       .  A
N398        N399   1.330       .  A
N398      Mn1209   2.244       .  S
N399        C403   1.361       .  A
N400        N401   1.317       .  A
N400       Mn412   2.209   1_455  S
N401        C402   1.352       .  A
C402        C688   1.491       .  S
C403        C545   1.488       .  S
N404        N410   1.317       .  A
N404        N405   1.326       .  A
N404       Mn434   2.212   1_545  S
N405        C413   1.354       .  A
N406        N407   1.322       .  A
N406        N408   1.318       .  A
N407        C414   1.351       .  A
N408        N409   1.328       .  A
N408       Mn434   2.244   1_445  S
N409        C414   1.359       .  A
N410        N411   1.318       .  A
N411        C413   1.352       .  A
Mn412      Cl436   2.527   1_545  S
C413        C504   1.480       .  S
C414        C640   1.487       .  S
N415        N416   1.326       .  A
N415        N421   1.319       .  A
N415       Mn423   2.231       .  S
N416        C424   1.356       .  A
N417        N419   1.319       .  A
N417        N418   1.315       .  A
N418        C425   1.349       .  A
N419        N420   1.326       .  A
N419       Mn423   2.224   1_455  S
N420        C425   1.356       .  A
N421        N422   1.322       .  A
N422        C424   1.351       .  A
Mn423      N1180   2.233   1_655  S
Mn423      N1184   2.244       .  S
Mn423     Cl1222   2.588       .  S
C424        C453   1.479       .  S
C425        C695   1.474       .  S
N426        N427   1.318       .  A
N426        N432   1.317       .  A
N426      Mn1220   2.221   1_455  S
N427        C437   1.356       .  A
N428        N429   1.318       .  A
N428        N430   1.318       .  A
N428       Mn435   2.215   1_556  S
N429        C438   1.354       .  A
N430        N431   1.329       .  A
N430      Mn1220   2.232       .  S
N431        C438   1.357       .  A
N432        N433   1.330       .  A
N432       Mn435   2.222   1_456  S
N433        C437   1.356       .  A
Mn434      N1212   2.221   1_655  S
Mn434      N1216   2.232       .  S
Mn435      Cl829   2.537       .  S
Cl436     Mn1209   2.588   1_565  S
Cl436      Mn828   2.537       .  S
C437        C594   1.495       .  S
C438        C446   1.490       .  S
C439        C440   1.528       .  S
C439        C445   1.524       .  S
C439        C443   1.528       .  S
C439        C786   1.463       .  S
C440        H447   1.087       .  S
C440        C441   1.367       .  D
C441        C442   1.556       .  S
C441        C781   1.454       .  S
C442        C446   1.555       .  S
C442        C444   1.551       .  S
C442        H448   1.111       .  S
C443        H449   1.087       .  S
C443        C444   1.360       .  D
C444        C783   1.448       .  S
C445        H450   1.087       .  S
C445        C446   1.363       .  D
C451        C452   1.530       .  S
C451        C457   1.531       .  S
C451        C455   1.535       .  S
C451        C779   1.467       .  S
C452        H459   1.086       .  S
C452        C453   1.358       .  D
C453        C454   1.550       .  S
C454        C458   1.546       .  S
C454        C456   1.550       .  S
C454        H460   1.111       .  S
C455        H461   1.087       .  S
C455        C456   1.365       .  D
C456        C777   1.452       .  S
C457        H462   1.087       .  S
C457        C458   1.366       .  D
C458        C776   1.449       .  S
N463        C468   1.353       .  A
N464        C471   1.355       .  A
N464        C472   1.354       .  A
N465        C469   1.352       .  A
N465        H496   1.030       .  S
N466        C473   1.350       .  A
N466        C474   1.350       .  A
C467        C475   1.389       .  A
C467        C483   1.416       .  A
C468        C484   1.412       .  A
C468        C476   1.385       .  A
C469        C477   1.390       .  A
C469        C486   1.418       .  A
C470        C485   1.417       .  A
C470        C478   1.389       .  A
C471        C483   1.421       .  A
C471        C479   1.386       .  A
C472        C486   1.424       .  A
C472        C480   1.388       .  A
C473        C481   1.385       .  A
C473        C484   1.408       .  A
C474        C482   1.388       .  A
C474        C485   1.412       .  A
C475        H487   1.082       .  S
C476        H488   1.080       .  S
C477        H489   1.082       .  S
C478        H490   1.083       .  S
C479        C480   1.383       .  A
C479        H491   1.082       .  S
C480        H492   1.082       .  S
C481        C482   1.375       .  A
C481        H493   1.082       .  S
C482        H494   1.082       .  S
C483        C782   1.461       .  S
C484        C780   1.449       .  S
C485        C771   1.446       .  S
C486        C774   1.458       .  S
C497        C498   1.528       .  S
C497        C503   1.528       .  S
C497        C501   1.528       .  S
C497        C766   1.462       .  S
C498        H505   1.087       .  S
C498        C499   1.359       .  D
C499        C500   1.549       .  S
C499        C770   1.445       .  S
C500        C504   1.545       .  S
C500        C502   1.546       .  S
C500        H506   1.111       .  S
C501        H507   1.087       .  S
C501        C502   1.367       .  D
C502        C767   1.443       .  S
C503        H508   1.087       .  S
C503        C504   1.364       .  D
N509        C514   1.353       .  A
N509       C1299   1.353       .  A
N509        H541   1.038       .  S
N510        C517   1.351       .  A
N510        C518   1.352       .  A
N511        C516   1.348       .  A
N511       C1301   1.349       .  A
N511        H542   1.039       .  S
N512        C519   1.352       .  A
N512        C520   1.353       .  A
C513       N1295   1.353   1_545  A
C513        C521   1.388       .  A
C513        C529   1.412       .  A
C514        C530   1.414       .  A
C514        C522   1.389       .  A
C515       N1297   1.349   1_545  A
C515        C523   1.388       .  A
C515        C532   1.405       .  A
C516        C531   1.405       .  A
C516        C524   1.388       .  A
C517        C529   1.414       .  A
C517        C525   1.387       .  A
C518        C532   1.414       .  A
C518        C526   1.386       .  A
C519        C527   1.386       .  A
C519        C530   1.416       .  A
C520        C528   1.386       .  A
C520        C531   1.416       .  A
C521       C1308   1.374   1_545  A
C521        H533   1.083       .  S
C522       C1307   1.374       .  A
C522        H534   1.083       .  S
C523       C1310   1.375   1_545  A
C523        H535   1.083       .  S
C524       C1309   1.375       .  A
C524        H536   1.083       .  S
C525        C526   1.382       .  A
C525        H537   1.082       .  S
C526        H538   1.082       .  S
C527        C528   1.383       .  A
C527        H539   1.082       .  S
C528        H540   1.082       .  S
C529        C763   1.454       .  S
C530        C775   1.455       .  S
C531        C784   1.453       .  S
C532        C769   1.451       .  S
C543        C544   1.531       .  S
C543        C549   1.533       .  S
C543        C547   1.534       .  S
C543        C759   1.481       .  S
C544        H551   1.087       .  S
C544        C545   1.367       .  D
C545        C546   1.548       .  S
C546        C550   1.545       .  S
C546        C548   1.551       .  S
C546        H552   1.111       .  S
C547        H553   1.086       .  S
C547        C548   1.370       .  D
C548        C761   1.456       .  S
C549        H554   1.087       .  S
C549        C550   1.364       .  D
C550        C764   1.447       .  S
N555        C560   1.353       .  A
N555        H587   1.038       .  S
N556        C563   1.352       .  A
N556        C564   1.351       .  A
N557        C562   1.353       .  A
N557        H588   1.035       .  S
N558        C565   1.355       .  A
N558        C566   1.355       .  A
C559        C567   1.386       .  A
C559        C575   1.411       .  A
C560        C576   1.412       .  A
C560        C568   1.388       .  A
C561        C569   1.388       .  A
C561        C578   1.417       .  A
C562        C577   1.416       .  A
C562        C570   1.388       .  A
C563        C575   1.412       .  A
C563        C571   1.385       .  A
C564        C578   1.414       .  A
C564        C572   1.388       .  A
C565        C573   1.386       .  A
C565        C576   1.419       .  A
C566        C574   1.387       .  A
C566        C577   1.421       .  A
C567        H579   1.080       .  S
C568        H580   1.083       .  S
C569        H581   1.083       .  S
C570        H582   1.083       .  S
C571        C572   1.378       .  A
C571        H583   1.082       .  S
C572        H584   1.082       .  S
C573        C574   1.382       .  A
C573        H585   1.082       .  S
C574        H586   1.082       .  S
C575        C757   1.455       .  S
C576        C756   1.459       .  S
C577        C762   1.462       .  S
C578        C768   1.452       .  S
C589        C590   1.530       .  S
C589        C595   1.527       .  S
C589        C593   1.521       .  S
C589        C752   1.467       .  S
C590        H597   1.086       .  S
C590        C591   1.370       .  D
C591        C592   1.561       .  S
C591        C754   1.462       .  S
C592        C596   1.557       .  S
C592        C594   1.559       .  S
C592        H598   1.111       .  S
C593        H599   1.084       .  S
C593        C594   1.359       .  D
C595        H600   1.087       .  S
C595        C596   1.361       .  D
C596        C773   1.450       .  S
N601        C606   1.354       .  A
N601        C605   1.355   1_455  A
N601        H633   1.039       .  S
N602        C609   1.346       .  A
N602        C610   1.346       .  A
N603        C608   1.353   1_655  A
N603        C607   1.354       .  A
N603        H634   1.039       .  S
N604        C611   1.357       .  A
N604        C612   1.356       .  A
C605        C613   1.387       .  A
C605        C621   1.414       .  A
C606        C622   1.415       .  A
C606        C614   1.389       .  A
C607        C615   1.388       .  A
C607        C624   1.413       .  A
C608        C623   1.412       .  A
C608        C616   1.388       .  A
C609        C621   1.403       .  A
C609        C617   1.386       .  A
C610        C624   1.403       .  A
C610        C618   1.386       .  A
C611        C619   1.386       .  A
C611        C622   1.424       .  A
C612        C620   1.387       .  A
C612        C623   1.424       .  A
C613        C614   1.372   1_655  A
C613        H625   1.082       .  S
C614        H626   1.082       .  S
C615        C616   1.372   1_655  A
C615        H627   1.082       .  S
C616        H628   1.082       .  S
C617        C618   1.375       .  A
C617        H629   1.082       .  S
C618        H630   1.082       .  S
C619        C620   1.387       .  A
C619        H631   1.082       .  S
C620        H632   1.082       .  S
C621        C785   1.446       .  S
C622        C753   1.467       .  S
C623        C750   1.465       .  S
C624        C765   1.445       .  S
C635        C636   1.535       .  S
C635        C641   1.533       .  S
C635        C639   1.533       .  S
C635        C758   1.476       .  S
C636        H643   1.087       .  S
C636        C637   1.365       .  D
C637        C638   1.555       .  S
C637        C749   1.460       .  S
C638        C642   1.547       .  S
C638        C640   1.554       .  S
C638        H644   1.111       .  S
C639        H645   1.085       .  S
C639        C640   1.361       .  D
C641        H646   1.087       .  S
C641        C642   1.366       .  D
C642        C747   1.452       .  S
N647        C652   1.355       .  A
N647       C1437   1.355   1_545  A
N647        H679   1.035       .  S
N648        C655   1.349       .  A
N648        C656   1.349       .  A
N649        C654   1.350       .  A
N649       C1439   1.352   1_545  A
N649        H680   1.036       .  S
N650        C657   1.354       .  A
N650        C658   1.354       .  A
C651       N1433   1.355       .  A
C651        C659   1.386       .  A
C651        C667   1.420       .  A
C652        C668   1.419       .  A
C652        C660   1.388       .  A
C653       N1435   1.352       .  A
C653        C661   1.387       .  A
C653        C670   1.410       .  A
C654        C669   1.412       .  A
C654        C662   1.390       .  A
C655        C667   1.409       .  A
C655        C663   1.387       .  A
C656        C670   1.408       .  A
C656        C664   1.386       .  A
C657        C665   1.387       .  A
C657        C668   1.420       .  A
C658        C666   1.386       .  A
C658        C669   1.420       .  A
C659       C1446   1.370       .  A
C659        H671   1.075       .  S
C660       C1445   1.370   1_545  A
C660        H672   1.082       .  S
C661       C1448   1.370       .  A
C661        H673   1.083       .  S
C662       C1447   1.370   1_545  A
C662        H674   1.082       .  S
C663        C664   1.373       .  A
C663        H675   1.082       .  S
C664        H676   1.082       .  S
C665        C666   1.382       .  A
C665        H677   1.082       .  S
C666        H678   1.082       .  S
C667        C751   1.452       .  S
C668        C748   1.460       .  S
C669        C746   1.452       .  S
C670        C744   1.443       .  S
C681        C682   1.527       .  S
C681        C687   1.524       .  S
C681        C685   1.530       .  S
C681        C741   1.463       .  S
C682        H689   1.087       .  S
C682        C683   1.359       .  D
C683        C684   1.552       .  S
C683        C745   1.446       .  S
C684        C688   1.554       .  S
C684        C686   1.554       .  S
C684        H690   1.111       .  S
C685        H691   1.086       .  S
C685        C686   1.369       .  D
C686        C755   1.453       .  S
C687        H692   1.087       .  S
C687        C688   1.364       .  D
C693        C694   1.526       .  S
C693        C699   1.532       .  S
C693        C697   1.528       .  S
C693        C739   1.462       .  S
C694        H701   1.087       .  S
C694        C695   1.363       .  D
C695        C696   1.539       .  S
C696        C700   1.537       .  S
C696        C698   1.540       .  S
C696        H702   1.112       .  S
C697        H703   1.086       .  S
C697        C698   1.367       .  D
C698        C772   1.436       .  S
C699        H704   1.087       .  S
C699        C700   1.361       .  D
C700        C743   1.434       .  S
N705        C710   1.355       .  A
N705        C709   1.355   1_655  A
N705        H737   1.037       .  S
N706        C713   1.347       .  A
N706        C714   1.347       .  A
N707        C712   1.354       .  A
N707        C711   1.356   1_655  A
N707        H738   1.037       .  S
N708        C715   1.355       .  A
N708        C716   1.354       .  A
C709        C717   1.388       .  A
C709        C725   1.417       .  A
C710        C726   1.418       .  A
C710        C718   1.389       .  A
C711        C719   1.389       .  A
C711        C728   1.417       .  A
C712        C727   1.415       .  A
C712        C720   1.388       .  A
C713        C725   1.406       .  A
C713        C721   1.387       .  A
C714        C728   1.404       .  A
C714        C722   1.386       .  A
C715        C723   1.386       .  A
C715        C726   1.419       .  A
C716        C724   1.386       .  A
C716        C727   1.419       .  A
C717        C718   1.373   1_455  A
C717        H729   1.082       .  S
C718        H730   1.082       .  S
C719        C720   1.370   1_455  A
C719        H731   1.081       .  S
C720        H732   1.082       .  S
C721        C722   1.374       .  A
C721        H733   1.082       .  S
C722        H734   1.083       .  S
C723        C724   1.381       .  A
C723        H735   1.082       .  S
C724        H736   1.082       .  S
C725        C742   1.447       .  S
C726        C760   1.461       .  S
C727        C778   1.459       .  S
C728        C740   1.446       .  S
C739        C740   1.203       .  T
C741        C742   1.204       .  T
C743        C744   1.202       .  T
C745        C746   1.209       .  T
C747        C748   1.213       .  T
C749        C750   1.218       .  T
C751        C752   1.207       .  T
C753        C754   1.219       .  T
C755        C756   1.213       .  T
C757        C758   1.211       .  T
C759        C760   1.214       .  T
C761        C762   1.215       .  T
C763        C764   1.210       .  T
C765        C766   1.203       .  T
C767        C768   1.208       .  T
C769        C770   1.209       .  T
C771        C772   1.203       .  T
C773        C774   1.212       .  T
C775        C776   1.211       .  T
C777        C778   1.213       .  T
C779        C780   1.206       .  T
C781        C782   1.214       .  T
C783        C784   1.210       .  T
C785        C786   1.204       .  T
N787        N788   1.330       .  A
N787        N793   1.317       .  A
N788        C795   1.359       .  A
N789        N791   1.318       .  A
N789        N790   1.317       .  A
N789       Mn805   2.202       .  S
N790        C796   1.349       .  A
N791        N792   1.330       .  A
N792        C796   1.361       .  A
N793        N794   1.317       .  A
N793       Mn805   2.209   1_455  S
N794        C795   1.352       .  A
C795       C1081   1.491       .  S
C796        C938   1.488       .  S
N797        N803   1.317       .  A
N797        N798   1.326       .  A
N797       Mn827   2.212       .  S
N798        C806   1.354       .  A
N799        N800   1.322       .  A
N799        N801   1.318       .  A
N799      Mn1198   2.206   1_455  S
N800        C807   1.351       .  A
N801        N802   1.328       .  A
N801       Mn827   2.244   1_455  S
N802        C807   1.359       .  A
N803        N804   1.318       .  A
N803      Mn1198   2.209       .  S
N804        C806   1.352       .  A
Mn805      N1192   2.206   1_654  S
Mn805      N1196   2.209   1_554  S
Mn805      Cl829   2.527       .  S
C806        C897   1.480       .  S
C807       C1033   1.487       .  S
N808        N809   1.326       .  A
N808        N814   1.319       .  A
N808       Mn816   2.231   1_565  S
N809        C817   1.356       .  A
N810        N812   1.319       .  A
N810        N811   1.315       .  A
N810      Mn1221   2.196   1_455  S
N811        C818   1.349       .  A
N812        N813   1.326       .  A
N812       Mn816   2.224   1_465  S
N813        C818   1.356       .  A
N814        N815   1.322       .  A
N814      Mn1221   2.212       .  S
N815        C817   1.351       .  A
C817        C846   1.479       .  S
C818       C1088   1.474       .  S
N819        N820   1.318       .  A
N819        N825   1.317       .  A
N820        C830   1.356       .  A
N821        N822   1.318       .  A
N821        N823   1.318       .  A
N821       Mn828   2.215       .  S
N822        C831   1.354       .  A
N823        N824   1.329       .  A
N824        C831   1.357       .  A
N825        N826   1.330       .  A
N825       Mn828   2.222   1_455  S
N826        C830   1.356       .  A
Mn827     Cl1222   2.576       .  S
Mn828      N1203   2.196   1_655  S
Mn828      N1207   2.212       .  S
Cl829     Mn1220   2.576   1_554  S
C830        C987   1.495       .  S
C831        C839   1.490       .  S
C832        C833   1.528       .  S
C832        C838   1.524       .  S
C832        C836   1.528       .  S
C832       C1179   1.463       .  S
C833        H840   1.087       .  S
C833        C834   1.367       .  D
C834        C835   1.556       .  S
C834       C1174   1.454       .  S
C835        C839   1.555       .  S
C835        C837   1.551       .  S
C835        H841   1.111       .  S
C836        H842   1.087       .  S
C836        C837   1.360       .  D
C837       C1176   1.448       .  S
C838        H843   1.087       .  S
C838        C839   1.363       .  D
C844        C845   1.530       .  S
C844        C850   1.531       .  S
C844        C848   1.535       .  S
C844       C1172   1.467       .  S
C845        H852   1.086       .  S
C845        C846   1.358       .  D
C846        C847   1.550       .  S
C847        C851   1.546       .  S
C847        C849   1.550       .  S
C847        H853   1.111       .  S
C848        H854   1.087       .  S
C848        C849   1.365       .  D
C849       C1170   1.452       .  S
C850        H855   1.087       .  S
C850        C851   1.366       .  D
C851       C1169   1.449       .  S
N856        C861   1.353   1_556  A
N856       C1253   1.354       .  A
N856       H1281   1.036       .  S
N857        C864   1.355       .  A
N857        C865   1.354       .  A
N858       C1256   1.353       .  A
N858        C862   1.352       .  A
N858        H889   1.030       .  S
N859        C866   1.350       .  A
N859        C867   1.350       .  A
C860       N1249   1.354       .  A
C860        C868   1.389       .  A
C860        C876   1.416       .  A
C861        C877   1.412       .  A
C861        C869   1.385       .  A
C862        C870   1.390       .  A
C862        C879   1.418       .  A
C863       N1251   1.353   1_554  A
C863        C878   1.417       .  A
C863        C871   1.389       .  A
C864        C876   1.421       .  A
C864        C872   1.386       .  A
C865        C879   1.424       .  A
C865        C873   1.388       .  A
C866        C874   1.385       .  A
C866        C877   1.408       .  A
C867        C875   1.388       .  A
C867        C878   1.412       .  A
C868       C1262   1.372       .  A
C868        H880   1.082       .  S
C869       C1261   1.372   1_554  A
C869        H881   1.080       .  S
C870       C1264   1.370       .  A
C870        H882   1.082       .  S
C871       C1263   1.370   1_554  A
C871        H883   1.083       .  S
C872        C873   1.383       .  A
C872        H884   1.082       .  S
C873        H885   1.082       .  S
C874        C875   1.375       .  A
C874        H886   1.082       .  S
C875        H887   1.082       .  S
C876       C1175   1.461       .  S
C877       C1173   1.449       .  S
C878       C1164   1.446       .  S
C879       C1167   1.458       .  S
H888       N1249   1.036       .  S
C890        C891   1.528       .  S
C890        C896   1.528       .  S
C890        C894   1.528       .  S
C890       C1159   1.462       .  S
C891        H898   1.087       .  S
C891        C892   1.359       .  D
C892        C893   1.549       .  S
C892       C1163   1.445       .  S
C893        C897   1.545       .  S
C893        C895   1.546       .  S
C893        H899   1.111       .  S
C894        H900   1.087       .  S
C894        C895   1.367       .  D
C895       C1160   1.443       .  S
C896        H901   1.087       .  S
C896        C897   1.364       .  D
N902        C907   1.353       .  A
N902        H934   1.038       .  S
N903        C910   1.351       .  A
N903        C911   1.352       .  A
N904        C909   1.348       .  A
N904        H935   1.039       .  S
N905        C912   1.352       .  A
N905        C913   1.353       .  A
C906        C914   1.388       .  A
C906        C922   1.412       .  A
C907        C923   1.414       .  A
C907        C915   1.389       .  A
C908        C916   1.388       .  A
C908        C925   1.405       .  A
C909        C924   1.405       .  A
C909        C917   1.388       .  A
C910        C922   1.414       .  A
C910        C918   1.387       .  A
C911        C925   1.414       .  A
C911        C919   1.386       .  A
C912        C920   1.386       .  A
C912        C923   1.416       .  A
C913        C921   1.386       .  A
C913        C924   1.416       .  A
C914        H926   1.083       .  S
C915        H927   1.083       .  S
C916        H928   1.083       .  S
C917        H929   1.083       .  S
C918        C919   1.382       .  A
C918        H930   1.082       .  S
C919        H931   1.082       .  S
C920        C921   1.383       .  A
C920        H932   1.082       .  S
C921        H933   1.082       .  S
C922       C1156   1.454       .  S
C923       C1168   1.455       .  S
C924       C1177   1.453       .  S
C925       C1162   1.451       .  S
C936        C937   1.531       .  S
C936        C942   1.533       .  S
C936        C940   1.534       .  S
C936       C1152   1.481       .  S
C937        H944   1.087       .  S
C937        C938   1.367       .  D
C938        C939   1.548       .  S
C939        C943   1.545       .  S
C939        C941   1.551       .  S
C939        H945   1.111       .  S
C940        H946   1.086       .  S
C940        C941   1.370       .  D
C941       C1154   1.456       .  S
C942        H947   1.087       .  S
C942        C943   1.364       .  D
C943       C1157   1.447       .  S
N948        C953   1.353       .  A
N948       C1345   1.352   1_554  A
N948        H980   1.038       .  S
N949        C956   1.352       .  A
N949        C957   1.351       .  A
N950        C955   1.353       .  A
N950       C1347   1.354   1_554  A
N950        H981   1.035       .  S
N951        C958   1.355       .  A
N951        C959   1.355       .  A
C952       N1341   1.352       .  A
C952        C960   1.386       .  A
C952        C968   1.411       .  A
C953        C969   1.412       .  A
C953        C961   1.388       .  A
C954       N1343   1.354       .  A
C954        C962   1.388       .  A
C954        C971   1.417       .  A
C955        C970   1.416       .  A
C955        C963   1.388       .  A
C956        C968   1.412       .  A
C956        C964   1.385       .  A
C957        C971   1.414       .  A
C957        C965   1.388       .  A
C958        C966   1.386       .  A
C958        C969   1.419       .  A
C959        C967   1.387       .  A
C959        C970   1.421       .  A
C960       C1354   1.373       .  A
C960        H972   1.080       .  S
C961       C1353   1.373   1_554  A
C961        H973   1.083       .  S
C962       C1356   1.375       .  A
C962        H974   1.083       .  S
C963       C1355   1.375   1_554  A
C963        H975   1.083       .  S
C964        C965   1.378       .  A
C964        H976   1.082       .  S
C965        H977   1.082       .  S
C966        C967   1.382       .  A
C966        H978   1.082       .  S
C967        H979   1.082       .  S
C968       C1150   1.455       .  S
C969       C1149   1.459       .  S
C970       C1155   1.462       .  S
C971       C1161   1.452       .  S
C982        C983   1.530       .  S
C982        C988   1.527       .  S
C982        C986   1.521       .  S
C982       C1145   1.467       .  S
C983        H990   1.086       .  S
C983        C984   1.370       .  D
C984        C985   1.561       .  S
C984       C1147   1.462       .  S
C985        C989   1.557       .  S
C985        C987   1.559       .  S
C985        H991   1.111       .  S
C986        H992   1.084       .  S
C986        C987   1.359       .  D
C988        H993   1.087       .  S
C988        C989   1.361       .  D
C989       C1166   1.450       .  S
N994        C999   1.354       .  A
N994        C998   1.355   1_455  A
N994       H1026   1.039       .  S
N995       C1002   1.346       .  A
N995       C1003   1.346       .  A
N996       C1001   1.353   1_655  A
N996       C1000   1.354       .  A
N996       H1027   1.039       .  S
N997       C1004   1.357       .  A
N997       C1005   1.356       .  A
C998       C1006   1.387       .  A
C998       C1014   1.414       .  A
C999       C1015   1.415       .  A
C999       C1007   1.389       .  A
C1000      C1008   1.388       .  A
C1000      C1017   1.413       .  A
C1001      C1016   1.412       .  A
C1001      C1009   1.388       .  A
C1002      C1014   1.403       .  A
C1002      C1010   1.386       .  A
C1003      C1017   1.403       .  A
C1003      C1011   1.386       .  A
C1004      C1012   1.386       .  A
C1004      C1015   1.424       .  A
C1005      C1013   1.387       .  A
C1005      C1016   1.424       .  A
C1006      C1007   1.372   1_655  A
C1006      H1018   1.082       .  S
C1007      H1019   1.082       .  S
C1008      C1009   1.372   1_655  A
C1008      H1020   1.082       .  S
C1009      H1021   1.082       .  S
C1010      C1011   1.375       .  A
C1010      H1022   1.082       .  S
C1011      H1023   1.082       .  S
C1012      C1013   1.387       .  A
C1012      H1024   1.082       .  S
C1013      H1025   1.082       .  S
C1014      C1178   1.446       .  S
C1015      C1146   1.467       .  S
C1016      C1143   1.465       .  S
C1017      C1158   1.445       .  S
C1028      C1029   1.535       .  S
C1028      C1034   1.533       .  S
C1028      C1032   1.533       .  S
C1028      C1151   1.476       .  S
C1029      H1036   1.087       .  S
C1029      C1030   1.365       .  D
C1030      C1031   1.555       .  S
C1030      C1142   1.461       .  S
C1031      C1035   1.547       .  S
C1031      C1033   1.554       .  S
C1031      H1037   1.111       .  S
C1032      H1038   1.085       .  S
C1032      C1033   1.361       .  D
C1034      H1039   1.087       .  S
C1034      C1035   1.366       .  D
C1035      C1140   1.452       .  S
N1040      C1045   1.355       .  A
N1040      H1072   1.035       .  S
N1041      C1048   1.349       .  A
N1041      C1049   1.349       .  A
N1042      C1047   1.350       .  A
N1042      H1073   1.036       .  S
N1043      C1050   1.354       .  A
N1043      C1051   1.354       .  A
C1044      C1052   1.386       .  A
C1044      C1060   1.420       .  A
C1045      C1061   1.419       .  A
C1045      C1053   1.388       .  A
C1046      C1054   1.387       .  A
C1046      C1063   1.410       .  A
C1047      C1062   1.412       .  A
C1047      C1055   1.390       .  A
C1048      C1060   1.409       .  A
C1048      C1056   1.387       .  A
C1049      C1063   1.408       .  A
C1049      C1057   1.386       .  A
C1050      C1058   1.387       .  A
C1050      C1061   1.420       .  A
C1051      C1059   1.386       .  A
C1051      C1062   1.420       .  A
C1052      H1064   1.075       .  S
C1053      H1065   1.082       .  S
C1054      H1066   1.083       .  S
C1055      H1067   1.082       .  S
C1056      C1057   1.373       .  A
C1056      H1068   1.082       .  S
C1057      H1069   1.082       .  S
C1058      C1059   1.382       .  A
C1058      H1070   1.082       .  S
C1059      H1071   1.082       .  S
C1060      C1144   1.452       .  S
C1061      C1141   1.460       .  S
C1062      C1139   1.452       .  S
C1063      C1137   1.443       .  S
C1074      C1075   1.527       .  S
C1074      C1080   1.524       .  S
C1074      C1078   1.530       .  S
C1074      C1134   1.463       .  S
C1075      H1082   1.087       .  S
C1075      C1076   1.359       .  D
C1076      C1077   1.552       .  S
C1076      C1138   1.446       .  S
C1077      C1081   1.554       .  S
C1077      C1079   1.554       .  S
C1077      H1083   1.111       .  S
C1078      H1084   1.086       .  S
C1078      C1079   1.369       .  D
C1079      C1148   1.453       .  S
C1080      H1085   1.087       .  S
C1080      C1081   1.364       .  D
C1086      C1087   1.526       .  S
C1086      C1092   1.532       .  S
C1086      C1090   1.528       .  S
C1086      C1132   1.462       .  S
C1087      H1094   1.087       .  S
C1087      C1088   1.363       .  D
C1088      C1089   1.539       .  S
C1089      C1093   1.537       .  S
C1089      C1091   1.540       .  S
C1089      H1095   1.112       .  S
C1090      H1096   1.086       .  S
C1090      C1091   1.367       .  D
C1091      C1165   1.436       .  S
C1092      H1097   1.087       .  S
C1092      C1093   1.361       .  D
C1093      C1136   1.434       .  S
N1098      C1103   1.355       .  A
N1098      C1102   1.355   1_655  A
N1098      H1130   1.037       .  S
N1099      C1106   1.347       .  A
N1099      C1107   1.347       .  A
N1100      C1105   1.354       .  A
N1100      C1104   1.356   1_655  A
N1100      H1131   1.037       .  S
N1101      C1108   1.355       .  A
N1101      C1109   1.354       .  A
C1102      C1110   1.388       .  A
C1102      C1118   1.417       .  A
C1103      C1119   1.418       .  A
C1103      C1111   1.389       .  A
C1104      C1112   1.389       .  A
C1104      C1121   1.417       .  A
C1105      C1120   1.415       .  A
C1105      C1113   1.388       .  A
C1106      C1118   1.406       .  A
C1106      C1114   1.387       .  A
C1107      C1121   1.404       .  A
C1107      C1115   1.386       .  A
C1108      C1116   1.386       .  A
C1108      C1119   1.419       .  A
C1109      C1117   1.386       .  A
C1109      C1120   1.419       .  A
C1110      C1111   1.373   1_455  A
C1110      H1122   1.082       .  S
C1111      H1123   1.082       .  S
C1112      C1113   1.370   1_455  A
C1112      H1124   1.081       .  S
C1113      H1125   1.082       .  S
C1114      C1115   1.374       .  A
C1114      H1126   1.082       .  S
C1115      H1127   1.083       .  S
C1116      C1117   1.381       .  A
C1116      H1128   1.082       .  S
C1117      H1129   1.082       .  S
C1118      C1135   1.447       .  S
C1119      C1153   1.461       .  S
C1120      C1171   1.459       .  S
C1121      C1133   1.446       .  S
C1132      C1133   1.203       .  T
C1134      C1135   1.204       .  T
C1136      C1137   1.202       .  T
C1138      C1139   1.209       .  T
C1140      C1141   1.213       .  T
C1142      C1143   1.218       .  T
C1144      C1145   1.207       .  T
C1146      C1147   1.219       .  T
C1148      C1149   1.213       .  T
C1150      C1151   1.211       .  T
C1152      C1153   1.214       .  T
C1154      C1155   1.215       .  T
C1156      C1157   1.210       .  T
C1158      C1159   1.203       .  T
C1160      C1161   1.208       .  T
C1162      C1163   1.209       .  T
C1164      C1165   1.203       .  T
C1166      C1167   1.212       .  T
C1168      C1169   1.211       .  T
C1170      C1171   1.213       .  T
C1172      C1173   1.206       .  T
C1174      C1175   1.214       .  T
C1176      C1177   1.210       .  T
C1178      C1179   1.204       .  T
N1180      N1181   1.330       .  A
N1180      N1186   1.317       .  A
N1181      C1188   1.359       .  A
N1182      N1184   1.318       .  A
N1182      N1183   1.317       .  A
N1182     Mn1198   2.202       .  S
N1183      C1189   1.349       .  A
N1184      N1185   1.330       .  A
N1185      C1189   1.361       .  A
N1186      N1187   1.317       .  A
N1186     Mn1198   2.209   1_455  S
N1187      C1188   1.352       .  A
C1188      C1474   1.491       .  S
C1189      C1331   1.488       .  S
N1190      N1196   1.317       .  A
N1190      N1191   1.326       .  A
N1190     Mn1220   2.212       .  S
N1191      C1199   1.354       .  A
N1192      N1193   1.322       .  A
N1192      N1194   1.318       .  A
N1193      C1200   1.351       .  A
N1194      N1195   1.328       .  A
N1194     Mn1220   2.244   1_455  S
N1195      C1200   1.359       .  A
N1196      N1197   1.318       .  A
N1197      C1199   1.352       .  A
Mn1198    Cl1222   2.527       .  S
C1199      C1290   1.480       .  S
C1200      C1426   1.487       .  S
N1201      N1202   1.326       .  A
N1201      N1207   1.319       .  A
N1201     Mn1209   2.231   1_565  S
N1202      C1210   1.356       .  A
N1203      N1205   1.319       .  A
N1203      N1204   1.315       .  A
N1204      C1211   1.349       .  A
N1205      N1206   1.326       .  A
N1205     Mn1209   2.224   1_465  S
N1206      C1211   1.356       .  A
N1207      N1208   1.322       .  A
N1208      C1210   1.351       .  A
C1210      C1239   1.479       .  S
C1211      C1481   1.474       .  S
N1212      N1213   1.318       .  A
N1212      N1218   1.317       .  A
N1213      C1223   1.356       .  A
N1214      N1215   1.318       .  A
N1214      N1216   1.318       .  A
N1214     Mn1221   2.215   1_556  S
N1215      C1224   1.354       .  A
N1216      N1217   1.329       .  A
N1217      C1224   1.357       .  A
N1218      N1219   1.330       .  A
N1218     Mn1221   2.222   1_456  S
N1219      C1223   1.356       .  A
C1223      C1380   1.495       .  S
C1224      C1232   1.490       .  S
C1225      C1226   1.528       .  S
C1225      C1231   1.524       .  S
C1225      C1229   1.528       .  S
C1225      C1572   1.463       .  S
C1226      H1233   1.087       .  S
C1226      C1227   1.367       .  D
C1227      C1228   1.556       .  S
C1227      C1567   1.454       .  S
C1228      C1232   1.555       .  S
C1228      C1230   1.551       .  S
C1228      H1234   1.111       .  S
C1229      H1235   1.087       .  S
C1229      C1230   1.360       .  D
C1230      C1569   1.448       .  S
C1231      H1236   1.087       .  S
C1231      C1232   1.363       .  D
C1237      C1238   1.530       .  S
C1237      C1243   1.531       .  S
C1237      C1241   1.535       .  S
C1237      C1565   1.467       .  S
C1238      H1245   1.086       .  S
C1238      C1239   1.358       .  D
C1239      C1240   1.550       .  S
C1240      C1244   1.546       .  S
C1240      C1242   1.550       .  S
C1240      H1246   1.111       .  S
C1241      H1247   1.087       .  S
C1241      C1242   1.365       .  D
C1242      C1563   1.452       .  S
C1243      H1248   1.087       .  S
C1243      C1244   1.366       .  D
C1244      C1562   1.449       .  S
N1249      C1254   1.353       .  A
N1250      C1257   1.355       .  A
N1250      C1258   1.354       .  A
N1251      C1255   1.352       .  A
N1251      H1282   1.030       .  S
N1252      C1259   1.350       .  A
N1252      C1260   1.350       .  A
C1253      C1261   1.389       .  A
C1253      C1269   1.416       .  A
C1254      C1270   1.412       .  A
C1254      C1262   1.385       .  A
C1255      C1263   1.390       .  A
C1255      C1272   1.418       .  A
C1256      C1271   1.417       .  A
C1256      C1264   1.389       .  A
C1257      C1269   1.421       .  A
C1257      C1265   1.386       .  A
C1258      C1272   1.424       .  A
C1258      C1266   1.388       .  A
C1259      C1267   1.385       .  A
C1259      C1270   1.408       .  A
C1260      C1268   1.388       .  A
C1260      C1271   1.412       .  A
C1261      H1273   1.082       .  S
C1262      H1274   1.080       .  S
C1263      H1275   1.082       .  S
C1264      H1276   1.083       .  S
C1265      C1266   1.383       .  A
C1265      H1277   1.082       .  S
C1266      H1278   1.082       .  S
C1267      C1268   1.375       .  A
C1267      H1279   1.082       .  S
C1268      H1280   1.082       .  S
C1269      C1568   1.461       .  S
C1270      C1566   1.449       .  S
C1271      C1557   1.446       .  S
C1272      C1560   1.458       .  S
C1283      C1284   1.528       .  S
C1283      C1289   1.528       .  S
C1283      C1287   1.528       .  S
C1283      C1552   1.462       .  S
C1284      H1291   1.087       .  S
C1284      C1285   1.359       .  D
C1285      C1286   1.549       .  S
C1285      C1556   1.445       .  S
C1286      C1290   1.545       .  S
C1286      C1288   1.546       .  S
C1286      H1292   1.111       .  S
C1287      H1293   1.087       .  S
C1287      C1288   1.367       .  D
C1288      C1553   1.443       .  S
C1289      H1294   1.087       .  S
C1289      C1290   1.364       .  D
N1295      C1300   1.353       .  A
N1295      H1327   1.038       .  S
N1296      C1303   1.351       .  A
N1296      C1304   1.352       .  A
N1297      C1302   1.348       .  A
N1297      H1328   1.039       .  S
N1298      C1305   1.352       .  A
N1298      C1306   1.353       .  A
C1299      C1307   1.388       .  A
C1299      C1315   1.412       .  A
C1300      C1316   1.414       .  A
C1300      C1308   1.389       .  A
C1301      C1309   1.388       .  A
C1301      C1318   1.405       .  A
C1302      C1317   1.405       .  A
C1302      C1310   1.388       .  A
C1303      C1315   1.414       .  A
C1303      C1311   1.387       .  A
C1304      C1318   1.414       .  A
C1304      C1312   1.386       .  A
C1305      C1313   1.386       .  A
C1305      C1316   1.416       .  A
C1306      C1314   1.386       .  A
C1306      C1317   1.416       .  A
C1307      H1319   1.083       .  S
C1308      H1320   1.083       .  S
C1309      H1321   1.083       .  S
C1310      H1322   1.083       .  S
C1311      C1312   1.382       .  A
C1311      H1323   1.082       .  S
C1312      H1324   1.082       .  S
C1313      C1314   1.383       .  A
C1313      H1325   1.082       .  S
C1314      H1326   1.082       .  S
C1315      C1549   1.454       .  S
C1316      C1561   1.455       .  S
C1317      C1570   1.453       .  S
C1318      C1555   1.451       .  S
C1329      C1330   1.531       .  S
C1329      C1335   1.533       .  S
C1329      C1333   1.534       .  S
C1329      C1545   1.481       .  S
C1330      H1337   1.087       .  S
C1330      C1331   1.367       .  D
C1331      C1332   1.548       .  S
C1332      C1336   1.545       .  S
C1332      C1334   1.551       .  S
C1332      H1338   1.111       .  S
C1333      H1339   1.086       .  S
C1333      C1334   1.370       .  D
C1334      C1547   1.456       .  S
C1335      H1340   1.087       .  S
C1335      C1336   1.364       .  D
C1336      C1550   1.447       .  S
N1341      C1346   1.353       .  A
N1341      H1373   1.038       .  S
N1342      C1349   1.352       .  A
N1342      C1350   1.351       .  A
N1343      C1348   1.353       .  A
N1343      H1374   1.035       .  S
N1344      C1351   1.355       .  A
N1344      C1352   1.355       .  A
C1345      C1353   1.386       .  A
C1345      C1361   1.411       .  A
C1346      C1362   1.412       .  A
C1346      C1354   1.388       .  A
C1347      C1355   1.388       .  A
C1347      C1364   1.417       .  A
C1348      C1363   1.416       .  A
C1348      C1356   1.388       .  A
C1349      C1361   1.412       .  A
C1349      C1357   1.385       .  A
C1350      C1364   1.414       .  A
C1350      C1358   1.388       .  A
C1351      C1359   1.386       .  A
C1351      C1362   1.419       .  A
C1352      C1360   1.387       .  A
C1352      C1363   1.421       .  A
C1353      H1365   1.080       .  S
C1354      H1366   1.083       .  S
C1355      H1367   1.083       .  S
C1356      H1368   1.083       .  S
C1357      C1358   1.378       .  A
C1357      H1369   1.082       .  S
C1358      H1370   1.082       .  S
C1359      C1360   1.382       .  A
C1359      H1371   1.082       .  S
C1360      H1372   1.082       .  S
C1361      C1543   1.455       .  S
C1362      C1542   1.459       .  S
C1363      C1548   1.462       .  S
C1364      C1554   1.452       .  S
C1375      C1376   1.530       .  S
C1375      C1381   1.527       .  S
C1375      C1379   1.521       .  S
C1375      C1538   1.467       .  S
C1376      H1383   1.086       .  S
C1376      C1377   1.370       .  D
C1377      C1378   1.561       .  S
C1377      C1540   1.462       .  S
C1378      C1382   1.557       .  S
C1378      C1380   1.559       .  S
C1378      H1384   1.111       .  S
C1379      H1385   1.084       .  S
C1379      C1380   1.359       .  D
C1381      H1386   1.087       .  S
C1381      C1382   1.361       .  D
C1382      C1559   1.450       .  S
N1387      C1392   1.354       .  A
N1387      C1391   1.355   1_455  A
N1387      H1419   1.039       .  S
N1388      C1395   1.346       .  A
N1388      C1396   1.346       .  A
N1389      C1394   1.353   1_655  A
N1389      C1393   1.354       .  A
N1389      H1420   1.039       .  S
N1390      C1397   1.357       .  A
N1390      C1398   1.356       .  A
C1391      C1399   1.387       .  A
C1391      C1407   1.414       .  A
C1392      C1408   1.415       .  A
C1392      C1400   1.389       .  A
C1393      C1401   1.388       .  A
C1393      C1410   1.413       .  A
C1394      C1409   1.412       .  A
C1394      C1402   1.388       .  A
C1395      C1407   1.403       .  A
C1395      C1403   1.386       .  A
C1396      C1410   1.403       .  A
C1396      C1404   1.386       .  A
C1397      C1405   1.386       .  A
C1397      C1408   1.424       .  A
C1398      C1406   1.387       .  A
C1398      C1409   1.424       .  A
C1399      C1400   1.372   1_655  A
C1399      H1411   1.082       .  S
C1400      H1412   1.082       .  S
C1401      C1402   1.372   1_655  A
C1401      H1413   1.082       .  S
C1402      H1414   1.082       .  S
C1403      C1404   1.375       .  A
C1403      H1415   1.082       .  S
C1404      H1416   1.082       .  S
C1405      C1406   1.387       .  A
C1405      H1417   1.082       .  S
C1406      H1418   1.082       .  S
C1407      C1571   1.446       .  S
C1408      C1539   1.467       .  S
C1409      C1536   1.465       .  S
C1410      C1551   1.445       .  S
C1421      C1422   1.535       .  S
C1421      C1427   1.533       .  S
C1421      C1425   1.533       .  S
C1421      C1544   1.476       .  S
C1422      H1429   1.087       .  S
C1422      C1423   1.365       .  D
C1423      C1424   1.555       .  S
C1423      C1535   1.460       .  S
C1424      C1428   1.547       .  S
C1424      C1426   1.554       .  S
C1424      H1430   1.111       .  S
C1425      H1431   1.085       .  S
C1425      C1426   1.361       .  D
C1427      H1432   1.087       .  S
C1427      C1428   1.366       .  D
C1428      C1533   1.452       .  S
N1433      C1438   1.355       .  A
N1433      H1465   1.035       .  S
N1434      C1441   1.349       .  A
N1434      C1442   1.349       .  A
N1435      C1440   1.350       .  A
N1435      H1466   1.036       .  S
N1436      C1443   1.354       .  A
N1436      C1444   1.354       .  A
C1437      C1445   1.386       .  A
C1437      C1453   1.420       .  A
C1438      C1454   1.419       .  A
C1438      C1446   1.388       .  A
C1439      C1447   1.387       .  A
C1439      C1456   1.410       .  A
C1440      C1455   1.412       .  A
C1440      C1448   1.390       .  A
C1441      C1453   1.409       .  A
C1441      C1449   1.387       .  A
C1442      C1456   1.408       .  A
C1442      C1450   1.386       .  A
C1443      C1451   1.387       .  A
C1443      C1454   1.420       .  A
C1444      C1452   1.386       .  A
C1444      C1455   1.420       .  A
C1445      H1457   1.075       .  S
C1446      H1458   1.082       .  S
C1447      H1459   1.083       .  S
C1448      H1460   1.082       .  S
C1449      C1450   1.373       .  A
C1449      H1461   1.082       .  S
C1450      H1462   1.082       .  S
C1451      C1452   1.382       .  A
C1451      H1463   1.082       .  S
C1452      H1464   1.082       .  S
C1453      C1537   1.452       .  S
C1454      C1534   1.460       .  S
C1455      C1532   1.452       .  S
C1456      C1530   1.443       .  S
C1467      C1468   1.527       .  S
C1467      C1473   1.524       .  S
C1467      C1471   1.530       .  S
C1467      C1527   1.463       .  S
C1468      H1475   1.087       .  S
C1468      C1469   1.359       .  D
C1469      C1470   1.552       .  S
C1469      C1531   1.446       .  S
C1470      C1474   1.554       .  S
C1470      C1472   1.554       .  S
C1470      H1476   1.111       .  S
C1471      H1477   1.086       .  S
C1471      C1472   1.369       .  D
C1472      C1541   1.453       .  S
C1473      H1478   1.087       .  S
C1473      C1474   1.364       .  D
C1479      C1480   1.526       .  S
C1479      C1485   1.532       .  S
C1479      C1483   1.528       .  S
C1479      C1525   1.462       .  S
C1480      H1487   1.087       .  S
C1480      C1481   1.363       .  D
C1481      C1482   1.539       .  S
C1482      C1486   1.537       .  S
C1482      C1484   1.540       .  S
C1482      H1488   1.112       .  S
C1483      H1489   1.086       .  S
C1483      C1484   1.367       .  D
C1484      C1558   1.436       .  S
C1485      H1490   1.087       .  S
C1485      C1486   1.361       .  D
C1486      C1529   1.434       .  S
N1491      C1496   1.355       .  A
N1491      C1495   1.355   1_655  A
N1491      H1523   1.037       .  S
N1492      C1499   1.347       .  A
N1492      C1500   1.347       .  A
N1493      C1498   1.354       .  A
N1493      C1497   1.356   1_655  A
N1493      H1524   1.037       .  S
N1494      C1501   1.355       .  A
N1494      C1502   1.354       .  A
C1495      C1503   1.388       .  A
C1495      C1511   1.417       .  A
C1496      C1512   1.418       .  A
C1496      C1504   1.389       .  A
C1497      C1505   1.389       .  A
C1497      C1514   1.417       .  A
C1498      C1513   1.415       .  A
C1498      C1506   1.388       .  A
C1499      C1511   1.406       .  A
C1499      C1507   1.387       .  A
C1500      C1514   1.404       .  A
C1500      C1508   1.386       .  A
C1501      C1509   1.386       .  A
C1501      C1512   1.419       .  A
C1502      C1510   1.386       .  A
C1502      C1513   1.419       .  A
C1503      C1504   1.373   1_455  A
C1503      H1515   1.082       .  S
C1504      H1516   1.082       .  S
C1505      C1506   1.370   1_455  A
C1505      H1517   1.081       .  S
C1506      H1518   1.082       .  S
C1507      C1508   1.374       .  A
C1507      H1519   1.082       .  S
C1508      H1520   1.083       .  S
C1509      C1510   1.381       .  A
C1509      H1521   1.082       .  S
C1510      H1522   1.082       .  S
C1511      C1528   1.447       .  S
C1512      C1546   1.461       .  S
C1513      C1564   1.459       .  S
C1514      C1526   1.446       .  S
C1525      C1526   1.203       .  T
C1527      C1528   1.204       .  T
C1529      C1530   1.202       .  T
C1531      C1532   1.209       .  T
C1533      C1534   1.213       .  T
C1535      C1536   1.218       .  T
C1537      C1538   1.207       .  T
C1539      C1540   1.219       .  T
C1541      C1542   1.213       .  T
C1543      C1544   1.211       .  T
C1545      C1546   1.214       .  T
C1547      C1548   1.215       .  T
C1549      C1550   1.210       .  T
C1551      C1552   1.203       .  T
C1553      C1554   1.208       .  T
C1555      C1556   1.209       .  T
C1557      C1558   1.203       .  T
C1559      C1560   1.212       .  T
C1561      C1562   1.211       .  T
C1563      C1564   1.213       .  T
C1565      C1566   1.206       .  T
C1567      C1568   1.214       .  T
C1569      C1570   1.210       .  T
C1571      C1572   1.204       .  T
