geometry optimzed in LAMMPS
_audit_creation_date              2020-12-01 
_audit_creation_method            'lammps2cif' 
_symmetry_space_group_name_H-M    'P1' 
_symmetry_Int_Tables_number       1 
_symmetry_cell_setting            triclinic 
loop_ 
_symmetry_equiv_pos_as_xyz 
  x,y,z 
_cell_length_a                    24.70563046 
_cell_length_b                    24.68120100110809 
_cell_length_c                    49.02501443202816 
_cell_angle_alpha                 89.41079925042155 
_cell_angle_beta                  89.47486613181498 
_cell_angle_gamma                 91.16973884937599 
loop_ 
_atom_site_label 
_atom_site_type_symbol 
_atom_site_fract_x 
_atom_site_fract_y 
_atom_site_fract_z 
_atom_site_charge 
C1          C  0.21345495  0.23194077  0.10312219     0.31000
C2          C  0.26640689  0.30097448  0.13467974     0.31000
C3          C  0.18305567  0.28730886  0.10796282    -0.05200
C4          C  0.22264243  0.21062668  0.13304927    -0.06000
C5          C  0.27049595  0.24960186  0.09194570    -0.05800
C6          C  0.21198727  0.32212399  0.12389418    -0.05200
C7          C  0.25221376  0.24483878  0.14897292    -0.05900
C8          C  0.29919326  0.28462920  0.10804617    -0.05800
C9          C  0.18231870  0.36946320  0.12747826    -0.31200
N10         N  0.13424622  0.36627620  0.11412662     0.15300
C11         C  0.13424296  0.31532977  0.10249575    -0.31200
H12         H  0.10069495  0.29911286  0.09093415     0.17200
C13         C  0.25839042  0.21770323  0.17450875    -0.30200
N14         N  0.23113856  0.16839280  0.17504432     0.14000
C15         C  0.20841044  0.16506382  0.14955044    -0.30200
C16         C  0.34921763  0.29413135  0.09372407    -0.30500
N17         N  0.35034647  0.26759013  0.06899015     0.14500
H18         H  0.38220177  0.31963254  0.10080075     0.17100
C19         C  0.30168496  0.23990331  0.06834526    -0.30500
H20         H  0.28913108  0.21412686  0.05173510     0.17100
H21         H  0.18315134  0.13135132  0.14307659     0.17100
H22         H  0.19476456  0.40339507  0.13990655     0.17200
H23         H  0.28132227  0.23337212  0.19149799     0.17100
N24         N  0.07585012  0.51071894  0.11841256    -0.35600
N25         N  0.98965354  0.42032079  0.11054290    -0.56100
N26         N  0.90260453  0.50257064  0.11620546    -0.35600
N27         N  0.98936970  0.59371335  0.11738569    -0.56100
C28         C  0.10693927  0.46638903  0.11265737     0.28000
C29         C  0.10733751  0.55754034  0.11572957     0.28000
C30         C  0.87242106  0.45676855  0.10939946     0.28000
C31         C  0.87134198  0.54813590  0.11346212     0.28000
C32         C  0.03488768  0.39079002  0.11608480     0.36600
C33         C  0.94517485  0.38636351  0.11407247     0.36600
C34         C  0.03393764  0.62692509  0.12237883     0.36600
C35         C  0.94302475  0.62259530  0.12221748     0.36600
C36         C  0.15859709  0.48607005  0.10601785    -0.20900
C37         C  0.15890244  0.54221600  0.10812843    -0.20900
C38         C  0.82156906  0.47450668  0.10192142    -0.20900
C39         C  0.82078595  0.53063902  0.10466228    -0.20900
C40         C  0.01835622  0.33872488  0.12368286    -0.21900
C41         C  0.96271469  0.33598327  0.12234917    -0.21900
C42         C  0.01518617  0.67671495  0.13063461    -0.21900
C43         C  0.95902670  0.67387970  0.13073362    -0.21900
C44         C  0.09121617  0.40857218  0.11400444    -0.17300
C45         C  0.09146344  0.61385379  0.11973501    -0.17300
C46         C  0.88624274  0.60519424  0.11858594    -0.17300
C47         C  0.88868798  0.39940374  0.11038865    -0.17300
H48         H  0.19292129  0.46267212  0.09965459     0.15600
H49         H  0.19332148  0.56882147  0.10381630     0.15600
H50         H  0.78821291  0.44983756  0.09457539     0.15600
H51         H  0.78672579  0.55586888  0.09999192     0.15600
H52         H  0.04339857  0.30606945  0.13065666     0.13900
H53         H  0.93808405  0.30114893  0.12825647     0.13900
H54         H  0.03941093  0.71135911  0.13683011     0.13900
H55         H  0.93286414  0.70592825  0.13720372     0.13900
H56         H  0.03607248  0.50853161  0.12548290     0.27200
H57         H  0.94157281  0.50263492  0.12400940     0.27200
C58         C  0.77445076  0.78749577  0.10559303     0.31000
C59         C  0.71134681  0.72359106  0.13775141     0.31000
C60         C  0.79895682  0.72968392  0.11247125    -0.05200
C61         C  0.76069734  0.81269215  0.13416281    -0.06000
C62         C  0.71742527  0.77138192  0.09295647    -0.05800
C63         C  0.76667812  0.69758234  0.12932714    -0.05200
C64         C  0.72735668  0.78078072  0.15029800    -0.05900
C65         C  0.68431274  0.74044037  0.10974517    -0.05800
C66         C  0.79430400  0.64802786  0.13339359    -0.31200
N67         N  0.84278519  0.64781280  0.11914765     0.15300
C68         C  0.84417385  0.69709085  0.10572663    -0.31200
H69         H  0.87580092  0.70751348  0.09121467     0.17200
C70         C  0.71641936  0.81171000  0.17406556    -0.30200
N71         N  0.74413446  0.86057120  0.17391853     0.14000
C72         C  0.77090035  0.86122285  0.14899123    -0.30200
C73         C  0.63395976  0.73540059  0.09582888    -0.30500
N74         N  0.63606707  0.75845799  0.07026580     0.14500
H75         H  0.59729655  0.71681449  0.10381855     0.17100
C76         C  0.68766286  0.78030110  0.06858138    -0.30500
H77         H  0.70260475  0.80171811  0.05072489     0.17100
H78         H  0.79624642  0.89473225  0.14175675     0.17100
H79         H  0.77963442  0.61467329  0.14610699     0.17200
H80         H  0.68894169  0.79983060  0.19033959     0.17100
N81         N  0.22956459  0.93814861  0.24788835    -0.35600
N82         N  0.22189007  0.02494424  0.29241029    -0.56100
N83         N  0.22726446  0.11051166  0.24928208    -0.35600
N84         N  0.22145790  0.02342310  0.20491695    -0.56100
C85         C  0.22171381  0.90753440  0.27132091     0.28000
C86         C  0.21832710  0.90667372  0.22534983     0.28000
C87         C  0.21629349  0.14129893  0.27206352     0.28000
C88         C  0.22026210  0.14133574  0.22597512     0.28000
C89         C  0.23523896  0.98012059  0.30750901     0.36600
C90         C  0.22952645  0.06973542  0.30853399     0.36600
C91         C  0.23032679  0.97889539  0.18878926     0.36600
C92         C  0.23418784  0.06911730  0.18970095     0.36600
C93         C  0.20473522  0.85618952  0.26341028    -0.20900
C94         C  0.20251362  0.85562896  0.23504383    -0.20900
C95         C  0.20142877  0.19206948  0.26268050    -0.20900
C96         C  0.20418509  0.19211934  0.23430115    -0.20900
C97         C  0.25214834  0.99717507  0.33299989    -0.21900
C98         C  0.24833012  0.05288400  0.33364690    -0.21900
C99         C  0.24911468  0.99678867  0.16357124    -0.21900
C100        C  0.25203988  0.05262375  0.16429201    -0.21900
C101        C  0.23022119  0.92362178  0.29969001    -0.17300
C102        C  0.22320619  0.92207213  0.19632216    -0.17300
C103        C  0.22880831  0.12578800  0.19740735    -0.17300
C104        C  0.22106529  0.12591287  0.30105674    -0.17300
H105        H  0.19366400  0.82257244  0.27676877     0.15600
H106        H  0.18954607  0.82131281  0.22302842     0.15600
H107        H  0.18913452  0.22593726  0.27494221     0.15600
H108        H  0.19437763  0.22590041  0.22127563     0.15600
H109        H  0.26693053  0.97222510  0.34948294     0.13900
H110        H  0.26024615  0.07818703  0.35046719     0.13900
H111        H  0.26195783  0.97230953  0.14663031     0.13900
H112        H  0.26768168  0.07810074  0.14804446     0.13900
H113        H  0.24559732  0.97741759  0.24745057     0.27200
H114        H  0.24255628  0.07161259  0.24945567     0.27200
N115        N  0.74599329  0.00559094  0.20381966    -0.35600
N116        N  0.74060961  0.92002098  0.24745012    -0.56100
N117        N  0.74844756  0.00860374  0.29104613    -0.35600
N118        N  0.74105518  0.09413015  0.24745123    -0.56100
C119        C  0.73654455  0.95996873  0.18837704     0.28000
C120        C  0.73393531  0.05068874  0.18846619     0.28000
C121        C  0.73815550  0.96266708  0.30677657     0.28000
C122        C  0.74089279  0.05425306  0.30675387     0.28000
C123        C  0.74834160  0.88788988  0.22483462     0.36600
C124        C  0.74782988  0.88885878  0.27064298     0.36600
C125        C  0.74790880  0.12492637  0.22393008     0.36600
C126        C  0.75100928  0.12673349  0.26971636     0.36600
C127        C  0.71770553  0.97669341  0.16324397    -0.20900
C128        C  0.71559679  0.03270628  0.16333742    -0.20900
C129        C  0.72301552  0.98011395  0.33253148    -0.20900
C130        C  0.72513411  0.03633093  0.33250838    -0.20900
C131        C  0.76085198  0.83648371  0.23402714    -0.21900
C132        C  0.76064089  0.83703900  0.26229655    -0.21900
C133        C  0.76287774  0.17702004  0.23159952    -0.21900
C134        C  0.76492537  0.17808840  0.25985537    -0.21900
C135        C  0.74379011  0.90337906  0.19596775    -0.17300
C136        C  0.74056436  0.10783164  0.19557211    -0.17300
C137        C  0.74721300  0.11170398  0.29881633    -0.17300
C138        C  0.74290657  0.90529493  0.29928745    -0.17300
H139        H  0.70488482  0.95105447  0.14669781     0.15600
H140        H  0.70082712  0.05718200  0.14668023     0.15600
H141        H  0.71015322  0.95512985  0.34973254     0.15600
H142        H  0.71444119  0.06105825  0.34955473     0.15600
H143        H  0.77065386  0.80201741  0.22169871     0.13900
H144        H  0.77059829  0.80287786  0.27508341     0.13900
H145        H  0.77304201  0.21096374  0.21827706     0.13900
H146        H  0.77709173  0.21291750  0.27163381     0.13900
H147        H  0.76343870  0.00628698  0.22304421     0.27200
H148        H  0.76317450  0.00855758  0.27111569     0.27200
C149        C  0.19784127  0.81254461  0.39135136     0.31000
C150        C  0.26400371  0.74913259  0.36207723     0.31000
C151        C  0.17536397  0.75352162  0.38576760    -0.05200
C152        C  0.21407739  0.83516943  0.36209397    -0.06000
C153        C  0.25624202  0.80308975  0.40474379    -0.05800
C154        C  0.20913851  0.72228423  0.37043847    -0.05200
C155        C  0.24837742  0.80360763  0.34696437    -0.05900
C156        C  0.28871467  0.77045597  0.38915374    -0.05800
C157        C  0.18297698  0.67213148  0.36616537    -0.31200
N158        N  0.13351559  0.67014136  0.37894031     0.15300
C159        C  0.12894877  0.72031054  0.39104550    -0.31200
H160        H  0.09398845  0.73259106  0.40272388     0.17200
C161        C  0.26017252  0.83450527  0.32279391    -0.30200
N162        N  0.23117648  0.88125990  0.32184288     0.14000
C163        C  0.20428835  0.88216286  0.34632625    -0.30200
C164        C  0.33869339  0.76470313  0.40230238    -0.30500
N165        N  0.33968617  0.79160460  0.42630630     0.14500
H166        H  0.37219297  0.74124949  0.39506869     0.17100
C167        C  0.29023249  0.81692180  0.42740906    -0.30500
H168        H  0.28062992  0.84460015  0.44349825     0.17100
H169        H  0.17967857  0.91561672  0.35244265     0.17100
H170        H  0.19893996  0.63975806  0.35395671     0.17200
H171        H  0.29019066  0.82575341  0.30747346     0.17100
N172        N  0.07819807  0.52350046  0.37118681    -0.35600
N173        N  0.99266454  0.43428842  0.37050734    -0.56100
N174        N  0.90690905  0.51635373  0.37338053    -0.35600
N175        N  0.99229840  0.60468705  0.38039525    -0.56100
C176        C  0.10901332  0.47806214  0.37382097     0.28000
C177        C  0.10851567  0.56822964  0.37870273     0.28000
C178        C  0.87647568  0.46939249  0.37677781     0.28000
C179        C  0.87641563  0.55962215  0.38111097     0.28000
C180        C  0.03776127  0.40588856  0.36363271     0.36600
C181        C  0.94825105  0.40174205  0.36547445     0.36600
C182        C  0.03621958  0.63769603  0.37456098     0.36600
C183        C  0.94710167  0.63409029  0.37517573     0.36600
C184        C  0.15932898  0.49439960  0.38340094    -0.20900
C185        C  0.15903719  0.55034507  0.38641902    -0.20900
C186        C  0.82612125  0.48348580  0.38685940    -0.20900
C187        C  0.82613552  0.53942254  0.38964541    -0.20900
C188        C  0.02146322  0.35566298  0.35388149    -0.21900
C189        C  0.96557745  0.35305246  0.35506297    -0.21900
C190        C  0.01847143  0.68709474  0.36509581    -0.21900
C191        C  0.96278712  0.68488474  0.36545753    -0.21900
C192        C  0.09368141  0.42234142  0.36750709    -0.17300
C193        C  0.09233294  0.62472464  0.37779198    -0.17300
C194        C  0.89163621  0.61692993  0.37951097    -0.17300
C195        C  0.89221888  0.41420065  0.37074835    -0.17300
H196        H  0.19269614  0.46852847  0.38833591     0.15600
H197        H  0.19226166  0.57481384  0.39393572     0.15600
H198        H  0.79272699  0.45624919  0.39216331     0.15600
H199        H  0.79268186  0.56239757  0.39747418     0.15600
H200        H  0.04721799  0.32393248  0.34651318     0.13900
H201        H  0.94057912  0.31912067  0.34863078     0.13900
H202        H  0.04312572  0.72057436  0.35754727     0.13900
H203        H  0.93681860  0.71654647  0.35831202     0.13900
H204        H  0.03978074  0.52432796  0.36272684     0.27200
H205        H  0.94503381  0.51938995  0.36428162     0.27200
C206        C  0.71735258  0.29555757  0.35258744     0.31000
C207        C  0.77196344  0.23534861  0.38901665     0.31000
C208        C  0.77232558  0.32112986  0.36194807    -0.05200
C209        C  0.68544454  0.28404373  0.38031293    -0.06000
C210        C  0.73173925  0.23698061  0.34251003    -0.05800
C211        C  0.80199882  0.28989804  0.37960501    -0.05200
C212        C  0.71480418  0.25458340  0.39848590    -0.05900
C213        C  0.76114570  0.20615603  0.36042091    -0.05800
C214        C  0.85130593  0.31956993  0.38315084    -0.31200
N215        N  0.85023482  0.36947977  0.37027115     0.15300
C216        C  0.80164661  0.36984006  0.35706121    -0.31200
H217        H  0.78828293  0.40309498  0.34441612     0.17200
C218        C  0.68342763  0.24735156  0.42243052    -0.30200
N219        N  0.63450885  0.27130840  0.42027515     0.14000
C220        C  0.63499705  0.29247457  0.39410398    -0.30200
C221        C  0.77128688  0.15682780  0.34606400    -0.30500
N222        N  0.74735687  0.15583943  0.32048119     0.14500
H223        H  0.79471243  0.12388374  0.35416211     0.17100
C224        C  0.72275401  0.20538025  0.31889973    -0.30500
H225        H  0.69896807  0.21827374  0.30168676     0.17100
H226        H  0.60024829  0.31175424  0.38557898     0.17100
H227        H  0.88517618  0.30599684  0.39507978     0.17200
H228        H  0.69551677  0.22480311  0.44029535     0.17100
N229        N  0.48551666  0.77755867  0.45379924    -0.35600
N230        N  0.57078826  0.77454377  0.49628637    -0.56100
N231        N  0.48924960  0.75580280  0.04217175    -0.35600
N232        N  0.39853977  0.78030387  0.49855762    -0.56100
C233        C  0.53147667  0.78348006  0.43766532     0.28000
C234        C  0.44068457  0.79130618  0.43892624     0.28000
C235        C  0.53539746  0.76590567  0.05716199     0.28000
C236        C  0.44420055  0.76577402  0.05808174     0.28000
C237        C  0.60145774  0.76367287  0.47349686     0.36600
C238        C  0.60640672  0.75111331  0.02038562     0.36600
C239        C  0.36754108  0.77585231  0.47548275     0.36600
C240        C  0.37115506  0.75501500  0.02207357     0.36600
C241        C  0.51521620  0.80125214  0.41219323    -0.20900
C242        C  0.45916188  0.80656367  0.41301835    -0.20900
C243        C  0.51880692  0.78330327  0.08266297    -0.20900
C244        C  0.46261378  0.78297103  0.08322673    -0.20900
C245        C  0.65015094  0.74254715  0.48175288    -0.21900
C246        C  0.65561296  0.73156620  0.01144709    -0.21900
C247        C  0.31640095  0.75688079  0.48312467    -0.21900
C248        C  0.32000913  0.73908080  0.01332594    -0.21900
C249        C  0.58755939  0.77287374  0.44515547    -0.17300
C250        C  0.38343529  0.78795634  0.44738743    -0.17300
C251        C  0.38692749  0.75963755  0.05088962    -0.17300
C252        C  0.59204064  0.75877511  0.04898546    -0.17300
H253        H  0.54113621  0.81022388  0.39475110     0.15600
H254        H  0.43489159  0.82044070  0.39618752     0.15600
H255        H  0.54437043  0.79639983  0.09922324     0.15600
H256        H  0.43826065  0.79576282  0.10019741     0.15600
H257        H  0.68219751  0.72780044  0.46882886     0.13900
H258        H  0.68843241  0.71733114  0.02389107     0.13900
H259        H  0.28303905  0.74696828  0.46983355     0.13900
H260        H  0.28639376  0.72483714  0.02592933     0.13900
H261        H  0.48423867  0.76143927  0.47344834     0.27200
H262        H  0.48839423  0.73953105  0.02268294     0.27200
N263        N  0.57736685  0.26623828  0.49385561    -0.35600
N264        N  0.49062978  0.28104669  0.45077016    -0.56100
N265        N  0.40639866  0.27482612  0.49502404    -0.35600
N266        N  0.49483004  0.26902974  0.03725874    -0.56100
C267        C  0.60782650  0.27773161  0.47077906     0.28000
C268        C  0.61115847  0.26950188  0.01460087     0.28000
C269        C  0.37537514  0.28781868  0.47279153     0.28000
C270        C  0.37790783  0.27475401  0.01844469     0.28000
C271        C  0.53468930  0.26898209  0.43477858     0.36600
C272        C  0.44475780  0.27312098  0.43547107     0.36600
C273        C  0.54033705  0.25905494  0.05232045     0.36600
C274        C  0.45020382  0.26282245  0.05417920     0.36600
C275        C  0.65952058  0.29261740  0.47933685    -0.20900
C276        C  0.66209145  0.28618778  0.00540103    -0.20900
C277        C  0.32623765  0.30637903  0.48254416    -0.20900
C278        C  0.32718375  0.29073963  0.01003865    -0.20900
C279        C  0.51609769  0.25256028  0.40950634    -0.21900
C280        C  0.46026936  0.25531561  0.40991380    -0.21900
C281        C  0.52371490  0.24623322  0.07872891    -0.21900
C282        C  0.46790672  0.24894054  0.07996374    -0.21900
C283        C  0.59153452  0.27307264  0.44219400    -0.17300
C284        C  0.59681226  0.26224274  0.04318420    -0.17300
C285        C  0.39355547  0.26868862  0.04697385    -0.17300
C286        C  0.38898624  0.28146812  0.44397670    -0.17300
H287        H  0.69338906  0.30601008  0.46669346     0.15600
H288        H  0.69657588  0.29738971  0.01771191     0.15600
H289        H  0.29288201  0.32114149  0.47062707     0.15600
H290        H  0.29360653  0.30239555  0.02286005     0.15600
H291        H  0.53987974  0.23789127  0.39261244     0.13900
H292        H  0.43418670  0.24330997  0.39339003     0.13900
H293        H  0.54886347  0.23434697  0.09544983     0.13900
H294        H  0.44327403  0.23972826  0.09781881     0.13900
H295        H  0.53789185  0.25079858  0.49392438     0.27200
H296        H  0.44383761  0.25641566  0.49425439     0.27200
C297        C  0.77783252  0.79476779  0.39177431     0.31000
C298        C  0.71865258  0.72794602  0.36185823     0.31000
C299        C  0.80326355  0.73835721  0.38704778    -0.05200
C300        C  0.71834314  0.78148056  0.40411152    -0.06000
C301        C  0.76341540  0.81775594  0.36235823    -0.05800
C302        C  0.77228859  0.70477137  0.37200412    -0.05200
C303        C  0.68780200  0.74647646  0.38831640    -0.05900
C304        C  0.73260694  0.78337208  0.34712587    -0.05800
C305        C  0.80020828  0.65644968  0.36836281    -0.31200
N306        N  0.84914185  0.65899598  0.38086217     0.15300
C307        C  0.85108849  0.70966689  0.39257223    -0.31200
H308        H  0.88517921  0.72542018  0.40393947     0.17200
C309        C  0.63531883  0.74203482  0.40050441    -0.30200
N310        N  0.63241786  0.77176820  0.42398854     0.14000
C311        C  0.68247601  0.79707789  0.42549990    -0.30200
C312        C  0.72013315  0.81141576  0.32255541    -0.30500
N313        N  0.74384096  0.86251789  0.32172399     0.14500
H314        H  0.69451673  0.79535033  0.30665395     0.17100
C315        C  0.76942840  0.86610729  0.34647457    -0.30500
H316        H  0.79055338  0.90221524  0.35270841     0.17100
H317        H  0.69135343  0.82597662  0.44116844     0.17100
H318        H  0.78631965  0.62252463  0.35629566     0.17200
H319        H  0.60157455  0.71852120  0.39269115     0.17100
C320        C  0.77038842  0.21171797  0.10109969     0.31000
C321        C  0.71412397  0.27964254  0.13182947     0.31000
C322        C  0.80206336  0.26847361  0.10678382    -0.05200
C323        C  0.71715104  0.23384948  0.08754025    -0.06000
C324        C  0.75465320  0.19098880  0.13067471    -0.05800
C325        C  0.77104001  0.30328327  0.12249470    -0.05200
C326        C  0.68823123  0.26741744  0.10365869    -0.05900
C327        C  0.72580699  0.22499228  0.14604590    -0.05800
C328        C  0.79763514  0.35425555  0.12291678    -0.31200
N329        N  0.84673814  0.35348437  0.11004166     0.15300
C330        C  0.84886963  0.30119957  0.09942812    -0.31200
H331        H  0.88169749  0.28753555  0.08664965     0.17200
C332        C  0.64300510  0.28410461  0.08862861    -0.30200
N333        N  0.64130171  0.25950297  0.06376176     0.14000
C334        C  0.68830723  0.23046550  0.06261422    -0.30200
C335        C  0.71679305  0.19937727  0.17179348    -0.30500
N336        N  0.74052675  0.14941583  0.17277498     0.14500
H337        H  0.69407559  0.21645661  0.18848242     0.17100
C338        C  0.76402765  0.14492187  0.14739375    -0.30500
H339        H  0.78713775  0.11027609  0.14135644     0.17100
H340        H  0.70008523  0.20632470  0.04531732     0.17100
H341        H  0.78185038  0.39013844  0.13221789     0.17200
H342        H  0.61318704  0.31252676  0.09549462     0.17100
C343        C  0.26963076  0.30243544  0.35519746     0.31000
C344        C  0.20539420  0.25065621  0.39154378     0.31000
C345        C  0.21490924  0.33281059  0.36149833    -0.05200
C346        C  0.24709725  0.24616512  0.34552979    -0.06000
C347        C  0.29571014  0.29289586  0.38358841    -0.05800
C348        C  0.18204133  0.30466425  0.37992946    -0.05200
C349        C  0.21477196  0.21750567  0.36389614    -0.05900
C350        C  0.26336371  0.26609215  0.40170427    -0.05800
C351        C  0.13325769  0.33255167  0.38217788    -0.31200
N352        N  0.13553403  0.37957307  0.36735946     0.15300
C353        C  0.18413219  0.37849571  0.35351259    -0.31200
H354        H  0.19510608  0.40808425  0.33795615     0.17200
C355        C  0.19983714  0.16925135  0.34926205    -0.30200
N356        N  0.22213636  0.16883530  0.32298843     0.14000
C357        C  0.25002051  0.21697690  0.32107503    -0.30200
C358        C  0.29376208  0.25926052  0.42574780    -0.30500
N359        N  0.34471143  0.28192199  0.42306111     0.14500
H360        H  0.27953676  0.23803415  0.44391890     0.17100
C361        C  0.34554102  0.30317498  0.39692744    -0.30500
H362        H  0.37990981  0.32472514  0.38787173     0.17100
H363        H  0.27255791  0.23001789  0.30307850     0.17100
H364        H  0.09875567  0.31993528  0.39461907     0.17200
H365        H  0.17384087  0.13707342  0.35740150     0.17100
C366        C  0.26295679  0.74312066  0.14232992     0.31000
C367        C  0.20617283  0.80026969  0.10567069     0.31000
C368        C  0.20889508  0.71309892  0.13249569    -0.05200
C369        C  0.24416875  0.80010177  0.15189991    -0.06000
C370        C  0.29390612  0.75379931  0.11401383    -0.05800
C371        C  0.17921687  0.74261576  0.11385307    -0.05200
C372        C  0.21535777  0.82984540  0.13384259    -0.05900
C373        C  0.26403907  0.78275075  0.09562602    -0.05800
C374        C  0.13464073  0.70773882  0.10663861    -0.31200
N375        N  0.13435261  0.65903684  0.12066236     0.15300
C376        C  0.18136715  0.66180400  0.13566441    -0.31200
H377        H  0.19493804  0.62896294  0.14851378     0.17200
C378        C  0.20314438  0.87872366  0.14808745    -0.30200
N379        N  0.22423572  0.87907259  0.17434381     0.14000
C380        C  0.24953274  0.83043579  0.17612989    -0.30200
C381        C  0.29443032  0.78634887  0.07100782    -0.30500
N382        N  0.34342038  0.76148679  0.07303994     0.14500
H383        H  0.28124032  0.80655640  0.05265343     0.17100
C384        C  0.34254226  0.74059349  0.09949520    -0.30500
H385        H  0.37463172  0.71653041  0.10788384     0.17100
H386        H  0.27158017  0.81760395  0.19394211     0.17100
H387        H  0.10507924  0.71601958  0.09119637     0.17200
H388        H  0.17988060  0.91141407  0.13962507     0.17100
O389        O  0.05480441  0.04801261  0.06177441    -0.74300
O390        O  0.11001401  0.05785906  0.02426128    -0.53200
C391        C  0.09705420  0.06645175  0.04909227     0.79500
O392        O  0.89706787  0.83485813  0.99550482    -0.58900
O393        O  0.82799359  0.88912313  0.99087248    -0.51900
C394        C  0.85176427  0.85229382  0.00418127     0.71500
O395        O  0.07742936  0.87265252  0.99766663    -0.73400
O396        O  0.12129604  0.95064872  0.00750692    -0.54000
C397        C  0.11494855  0.89921224  0.01007029     0.77500
O398        O  0.88230326  0.98603799  0.06781983    -0.58600
O399        O  0.81482717  0.99161865  0.03789599    -0.51700
C400        C  0.83710591  0.00483586  0.06049217     0.74100
Zr401      Zr  0.96658847  0.01526308  0.04718600     2.54700
O402        O  0.98712531  0.96724032  0.08934617    -0.79100
O403        O  0.95183266  0.10354272  0.06759001    -0.92500
Zr404      Zr  0.98006237  0.88904125  0.99834299     2.64700
O405        O  0.99041638  0.85336776  0.04465443    -0.97500
O406        O  0.99609762  0.80250315  0.97667850    -0.79600
O407        O  0.02463046  0.96001921  0.02192123    -0.82900
O408        O  0.92099314  0.94334293  0.02406259    -2.17600
O409        O  0.86167517  0.12596167  0.50116071    -0.66300
O410        O  0.79544880  0.06887333  0.49249050    -0.50900
C411        C  0.81703186  0.11551317  0.48892302     0.72500
O412        O  0.05786072  0.02864882  0.41263617    -0.59200
O413        O  0.12022266  0.03264364  0.44455619    -0.51200
C414        C  0.10169323  0.01084800  0.42304207     0.74300
O415        O  0.87387902  0.02134750  0.41402689    -0.70600
O416        O  0.81282445  0.01034693  0.44700296    -0.49300
C417        C  0.83372535  0.99508103  0.42455570     0.75600
O418        O  0.04309467  0.16925622  0.47424756    -0.65900
O419        O  0.10804154  0.11352753  0.48973504    -0.53100
C420        C  0.09268652  0.15733437  0.47898095     0.74000
Zr421      Zr  0.95224233  0.12916846  0.48025754     2.77500
O422        O  0.92548698  0.17904735  0.43949284    -0.96700
O423        O  0.95023564  0.21985778  0.49910528    -0.77500
Zr424      Zr  0.96605530  0.00595981  0.42924057     2.70100
O425        O  0.96543057  0.04555302  0.38364846    -0.78800
O426        O  0.97782540  0.91583420  0.41033966    -0.97800
Zr427      Zr  0.06675530  0.02814884  0.48576000     2.21500
Zr428      Zr  0.86232800  0.00155926  0.48906541     2.11100
O429        O  0.90747694  0.06114755  0.45621430    -2.46500
O430        O  0.01146479  0.07488250  0.45399875    -0.78600
O431        O  0.90888251  0.07133765  0.51338618    -0.70800
O432        O  0.02331828  0.95953731  0.45995043    -2.31700
O433        O  0.00810151  0.08347218  0.51045502    -2.27900
O434        O  0.91991948  0.94729981  0.46141482    -0.72500
H435        H  0.90208252  0.92004247  0.03688771     0.79500
H436        H  0.04841425  0.93709814  0.45038693     0.80600
H437        H  0.88207365  0.08267797  0.44626669     0.82800
H438        H  0.02671967  0.11211186  0.51951413     0.80400
H439        H  0.00382104  0.81195059  0.95733646     0.43400
H440        H  0.94938870  0.89216974  0.41873684     0.42400
H441        H  0.96726514  0.08515146  0.38668396     0.42100
H442        H  0.95435969  0.20702620  0.43672993     0.40000
H443        H  0.95985040  0.24444208  0.48365233     0.43200
H444        H  0.93330940  0.12504679  0.05345358     0.37900
H445        H  0.02219985  0.94984114  0.08575100     0.44100
H446        H  0.02216845  0.87342376  0.05179083     0.40500
H447        H  0.93062668  0.15385577  0.42415422     0.45400
H448        H  0.98778952  0.12147921  0.06925686     0.44100
H449        H  0.96044540  0.86699362  0.05590871     0.44200
H450        H  0.96918564  0.91813904  0.39075370     0.44600
O451        O  0.44374428  0.42124430  0.27776260    -0.74300
O452        O  0.43994536  0.34913170  0.25461807    -0.53200
C453        C  0.42251173  0.37468143  0.27487336     0.79500
O454        O  0.35820499  0.61946824  0.24271740    -0.58900
O455        O  0.42578915  0.68084347  0.24172893    -0.51900
C456        C  0.37730735  0.66580538  0.23609489     0.71500
O457        O  0.37105566  0.44566609  0.22977877    -0.73400
O458        O  0.42817199  0.39340553  0.20773480    -0.54000
C459        C  0.38224303  0.41456918  0.21023448     0.77500
O460        O  0.43129544  0.58854299  0.32252509    -0.58600
O461        O  0.47393200  0.66230897  0.30382146    -0.51700
C462        C  0.44125029  0.63962223  0.32073154     0.74100
Zr463      Zr  0.45647292  0.50498300  0.30104097     2.54700
O464        O  0.39080617  0.47990809  0.33609146    -0.79100
O465        O  0.50114432  0.47226475  0.34207366    -0.92500
Zr466      Zr  0.39790607  0.53880890  0.22681884     2.64700
O467        O  0.30248834  0.52659381  0.21556298    -0.97500
O468        O  0.38742781  0.56474407  0.17910449    -0.79600
O469        O  0.42409094  0.47317626  0.25862242    -0.82900
O470        O  0.42364048  0.57298993  0.27078847    -2.17600
O471        O  0.57898666  0.60060548  0.27511744    -0.66300
O472        O  0.56583670  0.68287384  0.28541442    -0.50900
C473        C  0.59430026  0.64137604  0.28796383     0.72500
O474        O  0.57405848  0.47187334  0.17481942    -0.59200
O475        O  0.54588886  0.39729954  0.19928041    -0.51200
C476        C  0.57154887  0.42130794  0.17995649     0.74300
O477        O  0.51107888  0.64026814  0.20407974    -0.70600
O478        O  0.53815461  0.70170847  0.23210731    -0.49300
C479        C  0.54151343  0.68125699  0.20866611     0.75600
O480        O  0.61080559  0.42126453  0.25004335    -0.65900
O481        O  0.55178316  0.35594829  0.25732462    -0.53100
C482        C  0.59769248  0.37691494  0.26227394     0.74000
Zr483      Zr  0.60482679  0.51083312  0.27021638     2.77500
O484        O  0.70162531  0.51788366  0.26124344    -0.96700
O485        O  0.64609714  0.49256617  0.31418117    -0.77500
Zr486      Zr  0.54713329  0.55063712  0.19836271     2.70100
O487        O  0.63947614  0.57839707  0.18671101    -0.78800
O488        O  0.52834748  0.56425407  0.15005985    -0.97800
Zr489      Zr  0.49599529  0.42314309  0.23744621     2.21500
Zr490      Zr  0.50046690  0.63084029  0.26034722     2.11100
O491        O  0.58080601  0.58467034  0.23972573    -2.46500
O492        O  0.57423040  0.47870908  0.22787718    -0.78600
O493        O  0.53174127  0.55886108  0.29089405    -0.70800
O494        O  0.47151476  0.49315709  0.20623071    -2.31700
O495        O  0.52798748  0.45699755  0.28112393    -2.27900
O496        O  0.47237489  0.59626207  0.21725585    -0.72500
H497        H  0.39427538  0.58996637  0.28025722     0.79500
H498        H  0.46215199  0.47865565  0.18887443     0.80600
H499        H  0.61150202  0.60752564  0.23378580     0.82800
H500        H  0.53818927  0.42994321  0.29413694     0.80400
H501        H  0.39585224  0.60414606  0.17841792     0.43400
H502        H  0.54035096  0.53195935  0.14007955     0.42400
H503        H  0.64868964  0.55683623  0.17046680     0.42100
H504        H  0.70505588  0.54067511  0.24459855     0.40000
H505        H  0.67342283  0.46478284  0.31035971     0.43200
H506        H  0.53971508  0.46811818  0.33706136     0.37900
H507        H  0.39534749  0.50692733  0.35071139     0.44100
H508        H  0.28281914  0.52752676  0.23320964     0.40500
H509        H  0.71696218  0.53970376  0.27620930     0.45400
H510        H  0.48699234  0.43489613  0.34507756     0.44100
H511        H  0.29235164  0.56037656  0.20602451     0.44200
H512        H  0.48839693  0.56285945  0.14894935     0.44600
C513        C  0.17979388  0.83538797  0.08405954    -0.04300
C514        C  0.12988992  0.81970855  0.07377285    -0.01400
C515        C  0.11956945  0.82795451  0.04625270     0.03600
C516        C  0.14567781  0.87151438  0.03211084    -0.04300
C517        C  0.19104113  0.89700912  0.04481640    -0.01400
C518        C  0.20901739  0.87778010  0.07039879     0.03600
C519        C  0.08475811  0.81509739  0.09260861     0.38200
C520        C  0.22172415  0.94058219  0.03155047     0.38200
C521        C  0.25796751  0.90083321  0.08227975     0.36600
C522        C  0.08509507  0.78860167  0.03288736     0.36600
N523        N  0.29738533  0.91865413  0.09148550    -0.38200
N524        N  0.05887987  0.75578905  0.02230716    -0.38200
N525        N  0.24811603  0.97543685  0.02220159    -0.37600
N526        N  0.04937816  0.81303596  0.10819828    -0.37600
C527        C  0.29357220  0.72106823  0.16684330    -0.04300
C528        C  0.26340750  0.69931003  0.18959368    -0.01400
C529        C  0.28970682  0.68443482  0.21358636     0.03600
C530        C  0.34500269  0.69771068  0.21692208    -0.04300
C531        C  0.37113354  0.73225321  0.19769948    -0.01400
C532        C  0.34602140  0.74354840  0.17272802     0.03600
C533        C  0.20469078  0.70103395  0.19105508     0.38200
C534        C  0.42234856  0.75916804  0.20404214     0.38200
C535        C  0.37024633  0.78678352  0.15606936     0.36600
C536        C  0.25881462  0.65627715  0.23504775     0.36600
N537        N  0.38951031  0.82299715  0.14405475    -0.38200
N538        N  0.23395221  0.63318504  0.25175963    -0.38200
N539        N  0.46247751  0.78179958  0.20904145    -0.37600
N540        N  0.15805203  0.70296495  0.19315603    -0.37600
C541        C  0.31245734  0.32326344  0.33593457    -0.04300
C542        C  0.31289627  0.37681429  0.32681639    -0.01400
C543        C  0.34223469  0.39060415  0.30346353     0.03600
C544        C  0.38107813  0.35444689  0.29333425    -0.04300
C545        C  0.38680524  0.30286957  0.30499515    -0.01400
C546        C  0.35395707  0.28787758  0.32708707     0.03600
C547        C  0.29585051  0.41946408  0.34484850     0.38200
C548        C  0.42749345  0.26591898  0.29502756     0.38200
C549        C  0.36401126  0.23649473  0.34083355     0.36600
C550        C  0.33026673  0.44152561  0.29003967     0.36600
N551        N  0.37184307  0.19537660  0.35150452    -0.38200
N552        N  0.31822984  0.48231543  0.28020676    -0.38200
N553        N  0.46021968  0.23666681  0.28736914    -0.37600
N554        N  0.28436071  0.45394320  0.35951492    -0.37600
C555        C  0.13553022  0.19073846  0.46670423    -0.04300
C556        C  0.17752268  0.16298190  0.45373725    -0.01400
C557        C  0.19145930  0.17705456  0.42689627     0.03600
C558        C  0.17614983  0.22839483  0.41661516    -0.04300
C559        C  0.15346588  0.26502669  0.43622767    -0.01400
C560        C  0.12558875  0.24385822  0.45886645     0.03600
C561        C  0.20937422  0.12444502  0.46890192     0.38200
C562        C  0.16766407  0.32243097  0.43725386     0.38200
C563        C  0.09012647  0.27723505  0.47504643     0.36600
C564        C  0.22856337  0.14279549  0.41224957     0.36600
N565        N  0.06170239  0.30392098  0.48783572    -0.38200
N566        N  0.25888135  0.11523460  0.40119706    -0.38200
N567        N  0.17856302  0.36818389  0.43855460    -0.37600
N568        N  0.23595776  0.09548465  0.48144741    -0.37600
C569        C  0.81509047  0.05113596  0.07546712    -0.04300
C570        C  0.76397157  0.07081157  0.06907992    -0.01400
C571        C  0.74904226  0.12081738  0.07921843     0.03600
C572        C  0.78974087  0.16009797  0.08745481    -0.04300
C573        C  0.84037921  0.13862194  0.09498611    -0.01400
C574        C  0.84887276  0.08245216  0.09253813     0.03600
C575        C  0.72358859  0.03767541  0.05527210     0.38200
C576        C  0.87971997  0.17107199  0.10970582     0.38200
C577        C  0.88777761  0.05621669  0.11005477     0.36600
C578        C  0.69209170  0.12389628  0.08704729     0.36600
N579        N  0.91789221  0.03544735  0.12455529    -0.38200
N580        N  0.64679780  0.12510309  0.09325077    -0.38200
N581        N  0.91178961  0.19547354  0.12179927    -0.37600
N582        N  0.69008834  0.01293539  0.04437448    -0.37600
C583        C  0.67807969  0.31079571  0.14950706    -0.04300
C584        C  0.69820013  0.35294347  0.16531486    -0.01400
C585        C  0.66334161  0.39392486  0.17224702     0.03600
C586        C  0.60773466  0.38770005  0.16589506    -0.04300
C587        C  0.58658250  0.33880082  0.15569606    -0.01400
C588        C  0.62217780  0.29796015  0.14998168     0.03600
C589        C  0.75144102  0.34917223  0.17743335     0.38200
C590        C  0.52864140  0.33008317  0.15213311     0.38200
C591        C  0.60191321  0.24318583  0.14527027     0.36600
C592        C  0.68428483  0.43988796  0.18740553     0.36600
N593        N  0.58616378  0.19926978  0.14199168    -0.38200
N594        N  0.70222699  0.47582694  0.19955531    -0.38200
N595        N  0.48251396  0.32333571  0.14940647    -0.37600
N596        N  0.79433874  0.34504119  0.18646145    -0.37600
C597        C  0.69606539  0.68679999  0.34393158    -0.04300
C598        C  0.71930115  0.67962870  0.31765742    -0.01400
C599        C  0.68818985  0.65328113  0.29859765     0.03600
C600        C  0.63641054  0.63646740  0.30669635    -0.04300
C601        C  0.62345599  0.62660770  0.33427759    -0.01400
C602        C  0.65751621  0.64870160  0.35344683     0.03600
C603        C  0.77342052  0.69923727  0.31013800     0.38200
C604        C  0.57386662  0.59967141  0.34320749     0.38200
C605        C  0.65649325  0.62884568  0.38141132     0.36600
C606        C  0.70794135  0.64657921  0.27105861     0.36600
N607        N  0.65614176  0.61225017  0.40358407    -0.38200
N608        N  0.72603082  0.64085177  0.24949546    -0.38200
N609        N  0.53482029  0.57892097  0.35171494    -0.37600
N610        N  0.81675316  0.71394968  0.30416930    -0.37600
C611        C  0.81735755  0.82968508  0.40687382    -0.04300
C612        C  0.80040328  0.84889010  0.43169919    -0.01400
C613        C  0.79277151  0.90416992  0.43341810     0.03600
C614        C  0.82385896  0.93919687  0.41618291    -0.04300
C615        C  0.85441081  0.91734199  0.39453354    -0.01400
C616        C  0.85459307  0.86113375  0.39136586     0.03600
C617        C  0.78840507  0.81132244  0.45390407     0.38200
C618        C  0.87666204  0.95163964  0.37275019     0.38200
C619        C  0.88551652  0.83706614  0.36948141     0.36600
C620        C  0.74376366  0.92226871  0.44643116     0.36600
N621        N  0.91033154  0.81886695  0.35180432    -0.38200
N622        N  0.70368007  0.90917793  0.96011391    -0.38200
N623        N  0.89299605  0.97804284  0.35473008    -0.37600
N624        N  0.77970502  0.78056910  0.47146115    -0.37600
C625        C  0.79143084  0.20234707  0.41381913    -0.04300
C626        C  0.81244147  0.22995293  0.43738881    -0.01400
C627        C  0.81742651  0.20258136  0.46260935     0.03600
C628        C  0.79975925  0.14875667  0.46537759    -0.04300
C629        C  0.76651188  0.12649928  0.44506225    -0.01400
C630        C  0.76405028  0.15137350  0.41919860     0.03600
C631        C  0.81982702  0.28829889  0.43839324     0.38200
C632        C  0.72686416  0.08419255  0.45224549     0.38200
C633        C  0.72117584  0.13137589  0.40153921     0.36600
C634        C  0.83174345  0.23215761  0.48713083     0.36600
N635        N  0.68433989  0.11664224  0.38900574    -0.38200
N636        N  0.84134164  0.25569317  0.50686792    -0.38200
N637        N  0.69424782  0.05164701  0.45795707    -0.37600
N638        N  0.82562634  0.33463566  0.44100434    -0.37600
C639        C  0.69237938  0.32882922  0.33019380    -0.04300
C640        C  0.64120741  0.35004226  0.33380293    -0.01400
C641        C  0.60717152  0.35196307  0.31158366     0.03600
C642        C  0.63002061  0.35691409  0.28510378    -0.04300
C643        C  0.68621034  0.35073331  0.28180961    -0.01400
C644        C  0.71712019  0.33337091  0.30400730     0.03600
C645        C  0.63189220  0.38730361  0.35587163     0.38200
C646        C  0.71173836  0.35916559  0.25555697     0.38200
C647        C  0.77360486  0.32035712  0.29969643     0.36600
C648        C  0.55002101  0.34549378  0.31717543     0.36600
N649        N  0.81863515  0.31018119  0.29614294    -0.38200
N650        N  0.50476628  0.34026298  0.32296229    -0.38200
N651        N  0.73321727  0.36645643  0.23484718    -0.37600
N652        N  0.62475610  0.41766831  0.37332240    -0.37600
C653        C  0.15670721  0.84976627  0.40485669    -0.04300
C654        C  0.16946338  0.87463924  0.42930978    -0.01400
C655        C  0.16044966  0.92995397  0.43231283     0.03600
C656        C  0.12385028  0.95710187  0.41480188    -0.04300
C657        C  0.10113635  0.92744753  0.39291674    -0.01400
C658        C  0.11491811  0.87268505  0.38910240     0.03600
C659        C  0.18165517  0.84149373  0.45285573     0.38200
C660        C  0.07014935  0.95450219  0.37198743     0.38200
C661        C  0.09049314  0.84238784  0.36703149     0.36600
C662        C  0.19531572  0.95870508  0.45098767     0.36600
N663        N  0.07090414  0.81944998  0.34905948    -0.38200
N664        N  0.22514560  0.98105124  0.46523313    -0.38200
N665        N  0.04638220  0.97554572  0.35476736    -0.37600
N666        N  0.19086354  0.81478861  0.47172524    -0.37600
C667        C  0.30091106  0.70901596  0.34901489    -0.04300
C668        C  0.32576069  0.66890950  0.36534727    -0.01400
C669        C  0.37839135  0.65340447  0.35879051     0.03600
C670        C  0.40336840  0.67396384  0.33479576    -0.04300
C671        C  0.37584091  0.71130241  0.31813288    -0.01400
C672        C  0.32161662  0.72016291  0.32318966     0.03600
C673        C  0.29985409  0.64738030  0.38998969     0.38200
C674        C  0.40245909  0.74203774  0.29634407     0.38200
C675        C  0.28485892  0.72701150  0.30075236     0.36600
C676        C  0.40811823  0.61900270  0.37733684     0.36600
N677        N  0.25464484  0.73294828  0.28315537    -0.38200
N678        N  0.43183529  0.59220663  0.39239407    -0.38200
N679        N  0.42389201  0.76843655  0.27967981    -0.37600
N680        N  0.27997965  0.63027007  0.40982332    -0.37600
C681        C  0.58764943  0.69224690  0.19050528    -0.04300
C682        C  0.63981692  0.70118217  0.20148754    -0.01400
C683        C  0.68545496  0.69360702  0.18483108     0.03600
C684        C  0.67808826  0.68738156  0.15672826    -0.04300
C685        C  0.62850577  0.66688407  0.14770851    -0.01400
C686        C  0.58217354  0.67738736  0.16295917     0.03600
C687        C  0.64652891  0.72447956  0.22825686     0.38200
C688        C  0.62697654  0.62989540  0.12492003     0.38200
C689        C  0.52976309  0.67746538  0.14983441     0.36600
C690        C  0.73999495  0.69715682  0.19544742     0.36600
N691        N  0.48790787  0.67834847  0.13942812    -0.38200
N692        N  0.78401300  0.69972678  0.20328347    -0.38200
N693        N  0.62588255  0.60031994  0.10675239    -0.37600
N694        N  0.65154884  0.74516211  0.24918575    -0.37600
C695        C  0.80698009  0.82638780  0.08759263    -0.04300
C696        C  0.77929849  0.86499165  0.07234152    -0.01400
C697        C  0.78938022  0.86846617  0.04418540     0.03600
C698        C  0.83352149  0.84004645  0.03254165    -0.04300
C699        C  0.86656028  0.80919887  0.05012379    -0.01400
C700        C  0.85718443  0.81082235  0.07815162     0.03600
C701        C  0.73579972  0.89498665  0.08484589     0.38200
C702        C  0.90582867  0.77132842  0.04006651     0.38200
C703        C  0.90056029  0.80615451  0.09749167     0.36600
C704        C  0.74918637  0.89471042  0.02766369     0.40000
N705        N  0.93435960  0.80371112  0.11356818    -0.38200
N706        N  0.71517121  0.91520400  0.01557309    -0.38200
N707        N  0.93639391  0.73999860  0.03227138    -0.37600
N708        N  0.70090014  0.91886326  0.09460161    -0.37600
C709        C  0.28770296  0.34256740  0.15331239    -0.04300
C710        C  0.26506380  0.34733828  0.17985212    -0.01400
C711        C  0.29471027  0.37497826  0.19924186     0.03600
C712        C  0.34215866  0.40234693  0.19060451    -0.04300
C713        C  0.35326110  0.41164466  0.16260758    -0.01400
C714        C  0.32232835  0.38415708  0.14370652     0.03600
C715        C  0.21111720  0.32668193  0.18687280     0.38200
C716        C  0.39695927  0.44638266  0.15247467     0.38200
C717        C  0.32153393  0.40296972  0.11553427     0.36600
C718        C  0.27947275  0.36975603  0.22784282     0.36600
N719        N  0.32087465  0.41888384  0.09324631    -0.38200
N720        N  0.26639800  0.36424370  0.25043651    -0.38200
N721        N  0.43066002  0.47275676  0.14210682    -0.37600
N722        N  0.16771530  0.31120325  0.19218260    -0.37600
C723        C  0.19021239  0.18960907  0.08515954    -0.04300
C724        C  0.20728653  0.13534653  0.08732286    -0.01400
C725        C  0.17327410  0.09404227  0.07801583     0.03600
C726        C  0.12876047  0.10799202  0.06219427    -0.04300
C727        C  0.12017919  0.16289439  0.05481033    -0.01400
C728        C  0.15381046  0.20326832  0.06496886     0.03600
C729        C  0.26151220  0.12286862  0.09626468     0.38200
C730        C  0.07604947  0.18045825  0.03809153     0.38200
C731        C  0.15743105  0.25600895  0.05148225     0.36600
C732        C  0.18165995  0.03856571  0.08646535     0.36600
N733        N  0.16116635  0.29751151  0.04032609    -0.38200
N734        N  0.18723205  0.99475776  0.09432465    -0.38200
N735        N  0.04198286  0.19969428  0.02550391    -0.37600
N736        N  0.30556363  0.11387815  0.10244458    -0.37600
C737        C  0.21569854  0.23464522  0.60260939     0.31000
C738        C  0.26864266  0.30284849  0.63515702     0.31000
C739        C  0.18487642  0.28919017  0.60819166    -0.05200
C740        C  0.22547059  0.21188498  0.63213186    -0.06000
C741        C  0.27173027  0.25355233  0.59159983    -0.05800
C742        C  0.21300757  0.32387190  0.62491131    -0.05200
C743        C  0.25507569  0.24543634  0.64844076    -0.05900
C744        C  0.30055815  0.28789991  0.60801350    -0.05800
C745        C  0.18152448  0.37030371  0.62844505    -0.31200
N746        N  0.13389496  0.36627684  0.61429177     0.15300
C747        C  0.13583264  0.31597525  0.60220008    -0.31200
H748        H  0.10361554  0.29956128  0.58978837     0.17200
C749        C  0.26274379  0.21616045  0.67322656    -0.30200
N750        N  0.23596517  0.16660390  0.67307215     0.14000
C751        C  0.21224138  0.16497395  0.64782711    -0.30200
C752        C  0.35030048  0.29741288  0.59357477    -0.30500
N753        N  0.35026886  0.27214776  0.56856489     0.14500
H754        H  0.38426300  0.32136302  0.60078712     0.17100
C755        C  0.30183519  0.24476890  0.56773136    -0.30500
H756        H  0.28895134  0.21978107  0.55087460     0.17100
H757        H  0.18681533  0.13167011  0.64101868     0.17100
H758        H  0.19279382  0.40445919  0.64098745     0.17200
H759        H  0.28659272  0.23040699  0.69019681     0.17100
N760        N  0.07194619  0.50933811  0.61417329    -0.35600
N761        N  0.98772034  0.41894957  0.60877060    -0.56100
N762        N  0.89898553  0.50210332  0.61200989    -0.35600
N763        N  0.98377259  0.59228851  0.61104532    -0.56100
C764        C  0.10446827  0.46531378  0.61028313     0.28000
C765        C  0.10246667  0.55635006  0.61059075     0.28000
C766        C  0.86904979  0.45535790  0.60705236     0.28000
C767        C  0.86687588  0.54690142  0.60856149     0.28000
C768        C  0.03322004  0.38948137  0.61436606     0.36600
C769        C  0.94295668  0.38543814  0.61280677     0.36600
C770        C  0.02812515  0.62523440  0.61621639     0.36600
C771        C  0.93785517  0.62150368  0.61600403     0.36600
C772        C  0.15611971  0.48528026  0.60397803    -0.20900
C773        C  0.15488909  0.54150849  0.60426350    -0.20900
C774        C  0.81736936  0.47152416  0.60001133    -0.20900
C775        C  0.81598109  0.52789968  0.60109389    -0.20900
C776        C  0.01659454  0.33763239  0.62219950    -0.21900
C777        C  0.96074923  0.33522862  0.62127837    -0.21900
C778        C  0.00975760  0.67492903  0.62486266    -0.21900
C779        C  0.95377492  0.67244699  0.62490127    -0.21900
C780        C  0.08979817  0.40764252  0.61283134    -0.17300
C781        C  0.08522587  0.61237732  0.61327874    -0.17300
C782        C  0.88148517  0.60439544  0.61231491    -0.17300
C783        C  0.88597669  0.39850229  0.60959314    -0.17300
H784        H  0.19141474  0.46198325  0.59904581     0.15600
H785        H  0.18902516  0.56836680  0.59978621     0.15600
H786        H  0.78371361  0.44550702  0.59426130     0.15600
H787        H  0.78116389  0.55213858  0.59649877     0.15600
H788        H  0.04176262  0.30503018  0.62913193     0.13900
H789        H  0.93609189  0.30074268  0.62759240     0.13900
H790        H  0.03411807  0.70924807  0.63137716     0.13900
H791        H  0.92767981  0.70431842  0.63167151     0.13900
H792        H  0.03182139  0.50729793  0.62067068     0.27200
H793        H  0.93839392  0.50315972  0.61919213     0.27200
C794        C  0.77295624  0.78977796  0.60031988     0.31000
C795        C  0.71032886  0.72481642  0.63227316     0.31000
C796        C  0.79636457  0.73058180  0.60591571    -0.05200
C797        C  0.76187431  0.81337425  0.62969361    -0.06000
C798        C  0.71459882  0.77636542  0.58872270    -0.05800
C799        C  0.76413825  0.69844583  0.62274908    -0.05200
C800        C  0.72901676  0.78063839  0.64587318    -0.05900
C801        C  0.68224176  0.74470425  0.60538082    -0.05800
C802        C  0.79056532  0.64843872  0.62668035    -0.31200
N803        N  0.83849755  0.64735701  0.61221870     0.15300
C804        C  0.84069997  0.69685005  0.59885134    -0.31200
H805        H  0.87253676  0.70687586  0.58438286     0.17200
C806        C  0.72072499  0.81001357  0.67041213    -0.30200
N807        N  0.74886776  0.85842419  0.67082177     0.14000
C808        C  0.77375027  0.86071647  0.64535011    -0.30200
C809        C  0.63097179  0.74103421  0.59253305    -0.30500
N810        N  0.63115937  0.76695870  0.56783370     0.14500
H811        H  0.59540600  0.72039228  0.60025579     0.17100
C812        C  0.68279814  0.78848911  0.56547505    -0.30500
H813        H  0.69653375  0.81150879  0.54782543     0.17100
H814        H  0.79870946  0.89461504  0.63824107     0.17100
H815        H  0.77581175  0.61563309  0.63973011     0.17200
H816        H  0.69464586  0.79788926  0.68692737     0.17100
N817        N  0.22605430  0.93299054  0.74523358    -0.35600
N818        N  0.22976517  0.01792203  0.78959581    -0.56100
N819        N  0.23734343  0.10573551  0.74629661    -0.35600
N820        N  0.22040765  0.02142795  0.70231877    -0.56100
C821        C  0.21901974  0.90144862  0.76861313     0.28000
C822        C  0.21073535  0.90369736  0.72245410     0.28000
C823        C  0.22982052  0.13604904  0.76943711     0.28000
C824        C  0.22878612  0.13783595  0.72364023     0.28000
C825        C  0.23929318  0.97212879  0.80496006     0.36600
C826        C  0.24126081  0.06246976  0.80541333     0.36600
C827        C  0.22559346  0.97662512  0.68602132     0.36600
C828        C  0.23542511  0.06641463  0.68701006     0.36600
C829        C  0.19822066  0.85174882  0.76035987    -0.20900
C830        C  0.19287082  0.85310898  0.73202008    -0.20900
C831        C  0.21566255  0.18771825  0.76105065    -0.20900
C832        C  0.21519192  0.18879834  0.73275453    -0.20900
C833        C  0.25752935  0.98838478  0.83034264    -0.21900
C834        C  0.25854551  0.04438838  0.83064837    -0.21900
C835        C  0.24487413  0.99361338  0.66072442    -0.21900
C836        C  0.25130518  0.04920788  0.66145035    -0.21900
C837        C  0.23078905  0.91565702  0.79720713    -0.17300
C838        C  0.21416264  0.92029681  0.69327447    -0.17300
C839        C  0.23370962  0.12311740  0.69495747    -0.17300
C840        C  0.23651546  0.11943944  0.79791475    -0.17300
H841        H  0.18649900  0.81814813  0.77354646     0.15600
H842        H  0.17664807  0.82026376  0.71993423     0.15600
H843        H  0.20544976  0.22142422  0.77390429     0.15600
H844        H  0.20451214  0.22326922  0.72038110     0.15600
H845        H  0.27028724  0.96272506  0.84698731     0.13900
H846        H  0.27229900  0.06888302  0.84748403     0.13900
H847        H  0.25562335  0.96851576  0.64368724     0.13900
H848        H  0.26778086  0.07394058  0.64512131     0.13900
H849        H  0.24401031  0.97144451  0.74473417     0.27200
H850        H  0.25126157  0.06627500  0.74587452     0.27200
N851        N  0.74933565  0.00130704  0.70323914    -0.35600
N852        N  0.74646986  0.91228987  0.74592341    -0.56100
N853        N  0.75453970  0.99744569  0.79073552    -0.35600
N854        N  0.74437793  0.08587359  0.74808196    -0.56100
C855        C  0.74056495  0.95652702  0.68713000     0.28000
C856        C  0.73618061  0.04715953  0.68865630     0.28000
C857        C  0.74395671  0.95084999  0.80591512     0.28000
C858        C  0.74636550  0.04225865  0.80690448     0.28000
C859        C  0.75387492  0.88195536  0.72256697     0.36600
C860        C  0.75325876  0.87939855  0.76868214     0.36600
C861        C  0.75148889  0.11836203  0.72514715     0.36600
C862        C  0.75703813  0.11622579  0.77074576     0.36600
C863        C  0.72101617  0.97454452  0.66233609    -0.20900
C864        C  0.71773504  0.03043741  0.66334435    -0.20900
C865        C  0.72820205  0.96704496  0.83177517    -0.20900
C866        C  0.73007344  0.02319624  0.83237439    -0.20900
C867        C  0.76595303  0.82977811  0.73095203    -0.21900
C868        C  0.76548082  0.82816069  0.75934503    -0.21900
C869        C  0.76954076  0.16894085  0.73350886    -0.21900
C870        C  0.77347872  0.16727855  0.76166308    -0.21900
C871        C  0.74895340  0.89958077  0.69377638    -0.17300
C872        C  0.74223665  0.10390473  0.69667696    -0.17300
C873        C  0.75281447  0.09989668  0.79959693    -0.17300
C874        C  0.74846137  0.89392076  0.79777997    -0.17300
H875        H  0.70845681  0.94982805  0.64539242     0.15600
H876        H  0.70221111  0.05560922  0.64714505     0.15600
H877        H  0.71493648  0.94127379  0.84860530     0.15600
H878        H  0.71883396  0.04706492  0.84963273     0.15600
H879        H  0.77532856  0.79606532  0.71798868     0.13900
H880        H  0.77460565  0.79300044  0.77166627     0.13900
H881        H  0.78073060  0.20331313  0.72064939     0.13900
H882        H  0.78880777  0.19969693  0.77400558     0.13900
H883        H  0.76696974  0.00092831  0.72242274     0.27200
H884        H  0.76973419  0.99853978  0.77087584     0.27200
C885        C  0.20143945  0.80102313  0.88939434     0.31000
C886        C  0.26503272  0.73780708  0.85904511     0.31000
C887        C  0.17732642  0.74338036  0.88300311    -0.05200
C888        C  0.21848998  0.82593088  0.86053237    -0.06000
C889        C  0.25924932  0.78841829  0.90306544    -0.05800
C890        C  0.20990272  0.71207053  0.86735192    -0.05200
C891        C  0.25066483  0.79404167  0.84473645    -0.05900
C892        C  0.29136527  0.75592956  0.88695087    -0.05800
C893        C  0.18259329  0.66261185  0.86302415    -0.31200
N894        N  0.13336890  0.66159575  0.87606988     0.15300
C895        C  0.13013774  0.71146509  0.88838481    -0.31200
H896        H  0.09599142  0.72405632  0.90057510     0.17200
C897        C  0.25955485  0.82420304  0.81980533    -0.30200
N898        N  0.23224391  0.87233549  0.81942869     0.14000
C899        C  0.20829052  0.87351929  0.84484845    -0.30200
C900        C  0.34080845  0.74813694  0.90102397    -0.30500
N901        N  0.34127588  0.77294300  0.92594361     0.14500
H902        H  0.37447182  0.72515667  0.89356087     0.17100
C903        C  0.29201325  0.79893572  0.92673299    -0.30500
H904        H  0.28153285  0.82531184  0.94325089     0.17100
H905        H  0.18438234  0.90705076  0.85165537     0.17100
H906        H  0.19784659  0.62973560  0.85091293     0.17200
H907        H  0.28518608  0.81234890  0.80310835     0.17100
N908        N  0.08211763  0.51385480  0.87325120    -0.35600
N909        N  0.00006656  0.42177567  0.87604500    -0.56100
N910        N  0.91080149  0.50170499  0.87507439    -0.35600
N911        N  0.99273337  0.59334354  0.87848322    -0.56100
C912        C  0.11490484  0.47043406  0.87752748     0.28000
C913        C  0.11052515  0.56051468  0.87932888     0.28000
C914        C  0.88207025  0.45412009  0.87988684     0.28000
C915        C  0.87813210  0.54479232  0.88071270     0.28000
C916        C  0.04639254  0.39429874  0.87004101     0.36600
C917        C  0.95661755  0.38714778  0.87199145     0.36600
C918        C  0.03601091  0.62737073  0.87265615     0.36600
C919        C  0.94652325  0.62119226  0.87305752     0.36600
C920        C  0.16442434  0.49001265  0.88671759    -0.20900
C921        C  0.16164436  0.54599826  0.88792755    -0.20900
C922        C  0.83077666  0.46769481  0.88884636    -0.20900
C923        C  0.82830992  0.52383824  0.88941546    -0.20900
C924        C  0.03151080  0.34243932  0.86181846    -0.21900
C925        C  0.97570894  0.33787830  0.86329714    -0.21900
C926        C  0.01688830  0.67621584  0.86306468    -0.21900
C927        C  0.96108810  0.67231261  0.86322070    -0.21900
C928        C  0.10212413  0.41370604  0.87290571    -0.17300
C929        C  0.09263906  0.61591530  0.87625727    -0.17300
C930        C  0.89117524  0.60241693  0.87747544    -0.17300
C931        C  0.89978325  0.39864803  0.87590739    -0.17300
H932        H  0.19902079  0.46643701  0.89247342     0.15600
H933        H  0.19378197  0.57282809  0.89476300     0.15600
H934        H  0.79848427  0.43990108  0.89495673     0.15600
H935        H  0.79360137  0.54647043  0.89598694     0.15600
H936        H  0.05788998  0.31088370  0.85489597     0.13900
H937        H  0.95190156  0.30241839  0.85784943     0.13900
H938        H  0.04064205  0.71075458  0.85588700     0.13900
H939        H  0.93432346  0.70332832  0.85607379     0.13900
H940        H  0.04393263  0.51196567  0.86451794     0.27200
H941        H  0.94931541  0.50475268  0.86641900     0.27200
C942        C  0.72569626  0.28330818  0.85420089     0.31000
C943        C  0.77434550  0.21988654  0.89107230     0.31000
C944        C  0.78102045  0.30582779  0.86441466    -0.05200
C945        C  0.69108114  0.27168266  0.88073133    -0.06000
C946        C  0.73843999  0.22462377  0.84355823    -0.05800
C947        C  0.80750870  0.27398084  0.88299234    -0.05200
C948        C  0.71700225  0.24031402  0.89911471    -0.05900
C949        C  0.76537983  0.19214836  0.86190905    -0.05800
C950        C  0.85644218  0.30378266  0.88846578    -0.31200
N951        N  0.85829348  0.35325715  0.87482145     0.15300
C952        C  0.81201335  0.35344071  0.85979579    -0.31200
H953        H  0.80093467  0.38638271  0.84635593     0.17200
C954        C  0.68311843  0.23410376  0.92216500    -0.30200
N955        N  0.63650083  0.26166908  0.91921079     0.14000
C956        C  0.64058253  0.28418672  0.89334692    -0.30200
C957        C  0.77508662  0.14290265  0.84750424    -0.30500
N958        N  0.75267761  0.14320102  0.82159736     0.14500
H959        H  0.79703661  0.10912314  0.85580800     0.17100
C960        C  0.72935734  0.19333664  0.81988125    -0.30500
H961        H  0.70635467  0.20667235  0.80248799     0.17100
H962        H  0.60984301  0.30922743  0.88441370     0.17100
H963        H  0.88766816  0.29062117  0.90222217     0.17200
H964        H  0.69210952  0.21072492  0.94026770     0.17100
N965        N  0.48791449  0.76101087  0.95458359    -0.35600
N966        N  0.57540322  0.76223597  0.99785204    -0.56100
N967        N  0.48331701  0.76424573  0.54092804    -0.35600
N968        N  0.40211775  0.76729947  0.99909333    -0.56100
C969        C  0.53428169  0.76867133  0.93886467     0.28000
C970        C  0.44294756  0.77401346  0.93940605     0.28000
C971        C  0.52953876  0.77294685  0.55601898     0.28000
C972        C  0.43804959  0.77163804  0.55717874     0.28000
C973        C  0.60548859  0.75071670  0.97492157     0.36600
C974        C  0.60080081  0.76124844  0.51872831     0.36600
C975        C  0.37021620  0.76058782  0.97626354     0.36600
C976        C  0.36654305  0.76523161  0.52062681     0.36600
C977        C  0.51811578  0.78721041  0.91346732    -0.20900
C978        C  0.46184612  0.79071718  0.91382157    -0.20900
C979        C  0.51275575  0.78625684  0.58219011    -0.20900
C980        C  0.45640219  0.78493475  0.58292137    -0.20900
C981        C  0.65490955  0.73109400  0.98325668    -0.21900
C982        C  0.64981549  0.74104367  0.50985964    -0.21900
C983        C  0.31936751  0.74286197  0.98505450    -0.21900
C984        C  0.31589172  0.74985613  0.51109591    -0.21900
C985        C  0.59074596  0.75884007  0.94644056    -0.17300
C986        C  0.38532015  0.76995213  0.94750657    -0.17300
C987        C  0.38082464  0.76718226  0.54940663    -0.17300
C988        C  0.58631014  0.76770341  0.54724869    -0.17300
H989        H  0.54426450  0.79814684  0.89637842     0.15600
H990        H  0.43774273  0.80489923  0.89699299     0.15600
H991        H  0.53825035  0.79696290  0.59919286     0.15600
H992        H  0.43197280  0.79417618  0.60048328     0.15600
H993        H  0.68700328  0.71633452  0.97037699     0.13900
H994        H  0.68177251  0.72488536  0.52226900     0.13900
H995        H  0.28536425  0.73199067  0.97235704     0.13900
H996        H  0.28193111  0.73383623  0.52292769     0.13900
H997        H  0.48686120  0.74429937  0.97414398     0.27200
H998        H  0.48281397  0.75070849  0.52091965     0.27200
N999        N  0.57911534  0.26101800  0.99223662    -0.35600
N1000       N  0.49345759  0.27044187  0.95025454    -0.56100
N1001       N  0.40844534  0.26542911  0.99532535    -0.35600
N1002       N  0.49377997  0.27241993  0.53797844    -0.56100
C1003       C  0.60952714  0.27178069  0.96910053     0.28000
C1004       C  0.60944723  0.27275017  0.51654378     0.28000
C1005       C  0.37742108  0.27487150  0.97265601     0.28000
C1006       C  0.37713770  0.28404289  0.51846774     0.28000
C1007       C  0.53712738  0.26056592  0.93364953     0.36600
C1008       C  0.44768103  0.26138609  0.93530418     0.36600
C1009       C  0.53796791  0.25870664  0.55320008     0.36600
C1010       C  0.44835791  0.26292408  0.55378103     0.36600
C1011       C  0.66097487  0.28799831  0.97720969    -0.20900
C1012       C  0.66061532  0.28894916  0.50758032    -0.20900
C1013       C  0.32705978  0.29081539  0.98176559    -0.20900
C1014       C  0.32724317  0.30377268  0.51082292    -0.20900
C1015       C  0.51870164  0.24481545  0.90832793    -0.21900
C1016       C  0.46294607  0.24518152  0.90943539    -0.21900
C1017       C  0.51992095  0.23970214  0.57843625    -0.21900
C1018       C  0.46407991  0.24239993  0.57882551    -0.21900
C1019       C  0.59349376  0.26561921  0.94078983    -0.17300
C1020       C  0.59453010  0.26402008  0.54514951    -0.17300
C1021       C  0.39279418  0.27345750  0.54660969    -0.17300
C1022       C  0.39211965  0.26842755  0.94395050    -0.17300
H1023       H  0.69449414  0.30092226  0.96421201     0.15600
H1024       H  0.69527624  0.29853309  0.52009437     0.15600
H1025       H  0.29365814  0.30249546  0.96932466     0.15600
H1026       H  0.29471448  0.31580597  0.52423435     0.15600
H1027       H  0.54263672  0.23264937  0.89094973     0.13900
H1028       H  0.43666096  0.23315432  0.89311679     0.13900
H1029       H  0.54431347  0.22418273  0.59479872     0.13900
H1030       H  0.43797852  0.22958572  0.59561897     0.13900
H1031       H  0.54007172  0.24450549  0.99278504     0.27200
H1032       H  0.44708440  0.24966360  0.99493807     0.27200
C1033       C  0.77808744  0.77917774  0.89027023     0.31000
C1034       C  0.71547745  0.71495856  0.85991587     0.31000
C1035       C  0.80139605  0.72237688  0.88474110    -0.05200
C1036       C  0.71903954  0.76680360  0.90302474    -0.06000
C1037       C  0.76434937  0.80376091  0.86095898    -0.05800
C1038       C  0.76925820  0.68929476  0.86960918    -0.05200
C1039       C  0.68663097  0.73375117  0.88718775    -0.05900
C1040       C  0.73219294  0.77091384  0.84548419    -0.05800
C1041       C  0.79746635  0.64056609  0.86618057    -0.31200
N1042       N  0.84716030  0.64334451  0.87846058     0.15300
C1043       C  0.84899886  0.69377575  0.89019731    -0.31200
H1044       H  0.88304227  0.70950690  0.90161456     0.17200
C1045       C  0.63520894  0.72966895  0.90078386    -0.30200
N1046       N  0.63499749  0.75726223  0.92488844     0.14000
C1047       C  0.68591274  0.78057070  0.92585908    -0.30200
C1048       C  0.72225369  0.80026127  0.82069719    -0.30500
N1049       N  0.74840501  0.85009387  0.81996071     0.14500
H1050       H  0.69589350  0.78700467  0.80463032     0.17100
C1051       C  0.77324072  0.85200268  0.84498677    -0.30500
H1052       H  0.79574022  0.88706517  0.85133795     0.17100
H1053       H  0.69745227  0.80603595  0.94242734     0.17100
H1054       H  0.78325164  0.60631763  0.85444391     0.17200
H1055       H  0.59946957  0.70892465  0.89370772     0.17100
C1056       C  0.76636200  0.21261055  0.60357067     0.31000
C1057       C  0.71177130  0.28025374  0.63543664     0.31000
C1058       C  0.79813642  0.26894147  0.60888315    -0.05200
C1059       C  0.71265743  0.23453910  0.59081395    -0.06000
C1060       C  0.75236201  0.19140264  0.63317837    -0.05800
C1061       C  0.76851209  0.30366369  0.62531286    -0.05200
C1062       C  0.68390333  0.26778300  0.60732186    -0.05900
C1063       C  0.72442712  0.22495354  0.64930706    -0.05800
C1064       C  0.79620451  0.35418703  0.62550236    -0.31200
N1065       N  0.84380978  0.35298289  0.61107463     0.15300
C1066       C  0.84429687  0.30100322  0.60027048    -0.31200
H1067       H  0.87545091  0.28722544  0.58649001     0.17200
C1068       C  0.63816562  0.28378479  0.59208231    -0.30200
N1069       N  0.63767965  0.26059562  0.56661448     0.14000
C1070       C  0.68466875  0.23176433  0.56568200    -0.30200
C1071       C  0.71728524  0.19774889  0.67493378    -0.30500
N1072       N  0.74087542  0.14747137  0.67478310     0.14500
H1073       H  0.69588938  0.21392381  0.69229531     0.17100
C1074       C  0.76286553  0.14458024  0.64906595    -0.30500
H1075       H  0.78568058  0.11037843  0.64217876     0.17100
H1076       H  0.69730492  0.20846284  0.54824782     0.17100
H1077       H  0.78206161  0.39007188  0.63552360     0.17200
H1078       H  0.60751713  0.31110021  0.59919974     0.17100
C1079       C  0.27843189  0.29681990  0.85403730     0.31000
C1080       C  0.21319392  0.23906136  0.88743769     0.31000
C1081       C  0.22428903  0.32636861  0.86211233    -0.05200
C1082       C  0.25890532  0.24068220  0.84255691    -0.06000
C1083       C  0.30315485  0.28359873  0.88270544    -0.05800
C1084       C  0.19141497  0.29500847  0.87874912    -0.05200
C1085       C  0.22591337  0.20996259  0.85964027    -0.05900
C1086       C  0.27094492  0.25142016  0.89912693    -0.05800
C1087       C  0.14488236  0.32395472  0.88487314    -0.31200
N1088       N  0.14659748  0.37352286  0.87244714     0.15300
C1089       C  0.19622257  0.37607204  0.85928203    -0.31200
H1090       H  0.21099192  0.41173048  0.84836314     0.17200
C1091       C  0.21508020  0.16113054  0.84535124    -0.30200
N1092       N  0.23922968  0.16191889  0.81979002     0.14000
C1093       C  0.26651040  0.21094037  0.81847373    -0.30200
C1094       C  0.30054433  0.24109693  0.92309706    -0.30500
N1095       N  0.34913417  0.26886392  0.92260554     0.14500
H1096       H  0.28704777  0.21534692  0.93991535     0.17100
C1097       C  0.35040163  0.29535159  0.89775855    -0.30500
H1098       H  0.38362478  0.32135535  0.89079864     0.17100
H1099       H  0.29104280  0.22447364  0.80121739     0.17100
H1100       H  0.11190350  0.30955350  0.89788541     0.17200
H1101       H  0.19053907  0.12753307  0.85313927     0.17100
C1102       C  0.24912402  0.74453115  0.63697530     0.31000
C1103       C  0.19425446  0.80231542  0.60037698     0.31000
C1104       C  0.19734979  0.71408972  0.62632625    -0.05200
C1105       C  0.22852754  0.80029004  0.64717567    -0.06000
C1106       C  0.28155743  0.75626810  0.60946358    -0.05800
C1107       C  0.16807394  0.74338468  0.60748186    -0.05200
C1108       C  0.20097730  0.83112695  0.62921725    -0.05900
C1109       C  0.25334342  0.78667676  0.59122282    -0.05800
C1110       C  0.12565166  0.70655125  0.59952760    -0.31200
N1111       N  0.12678818  0.65801249  0.61359748     0.15300
C1112       C  0.17267740  0.66195928  0.62896274    -0.31200
H1113       H  0.18700474  0.62947115  0.64181939     0.17200
C1114       C  0.19036629  0.87997279  0.64422606    -0.30200
N1115       N  0.21092359  0.87837562  0.67071598     0.14000
C1116       C  0.23391833  0.82892973  0.67191070    -0.30200
C1117       C  0.28685466  0.79350925  0.56781702    -0.30500
N1118       N  0.33558029  0.76807599  0.57055662     0.14500
H1119       H  0.27589358  0.81612904  0.54977445     0.17100
C1120       C  0.33159025  0.74401340  0.59614027    -0.30500
H1121       H  0.36261490  0.71894023  0.60480105     0.17100
H1122       H  0.25546788  0.81491975  0.68961757     0.17100
H1123       H  0.09676510  0.71281080  0.58358435     0.17200
H1124       H  0.16938756  0.91434634  0.63592417     0.17100
O1125       O  0.05193985  0.06022458  0.56018821    -0.74300
O1126       O  0.11374793  0.05842890  0.52524566    -0.53200
C1127       C  0.09743823  0.07228404  0.54895819     0.79500
O1128       O  0.89474544  0.85244415  0.48957292    -0.58900
O1129       O  0.82733400  0.91000231  0.48820050    -0.51900
C1130       C  0.85063060  0.87017010  0.49950642     0.71500
O1131       O  0.07439340  0.88120174  0.49241090    -0.73400
O1132       O  0.12282117  0.95683330  0.50139327    -0.54000
C1133       C  0.11381684  0.90598102  0.50410532     0.77500
O1134       O  0.88310192  0.99700860  0.56391608    -0.58600
O1135       O  0.81885644  0.01408406  0.53297217    -0.51700
C1136       C  0.83788428  0.01654348  0.55723342     0.74100
Zr1137     Zr  0.96715474  0.02630458  0.54356975     2.54700
O1138       O  0.98835498  0.97965054  0.58602618    -0.79100
O1139       O  0.94607544  0.11154551  0.56552326    -0.92500
Zr1140     Zr  0.97905160  0.90326995  0.49247844     2.64700
O1141       O  0.98035079  0.86285472  0.53796018    -0.97500
O1142       O  0.99224610  0.81956295  0.46770707    -0.79600
O1143       O  0.02501069  0.97004497  0.51843304    -0.82900
O1144       O  0.92155143  0.95665209  0.51943664    -2.17600
O1145       O  0.85015093  0.10791442  0.00347457    -0.66300
O1146       O  0.78792727  0.04779903  0.99275696    -0.50900
C1147       C  0.80700665  0.09585814  0.99048936     0.72500
O1148       O  0.04978938  0.00748982  0.91514420    -0.59200
O1149       O  0.11427853  0.01299140  0.94620526    -0.51200
C1150       C  0.09476788  0.99120806  0.92491432     0.74300
O1151       O  0.86727610  0.00352518  0.91866301    -0.70600
O1152       O  0.80684986  0.98774889  0.95145245    -0.49300
C1153       C  0.82809753  0.97530424  0.92854066     0.75600
O1154       O  0.02435736  0.15734633  0.97116399    -0.65900
O1155       O  0.09794136  0.10311605  0.97532546    -0.53100
C1156       C  0.07405306  0.14573145  0.96756050     0.74000
Zr1157     Zr  0.94147119  0.11173128  0.98394345     2.77500
O1158       O  0.92029585  0.16436420  0.94329742    -0.96700
O1159       O  0.93616677  0.19773554  0.00752678    -0.77500
Zr1160     Zr  0.95894020  0.98654976  0.93342309     2.70100
O1161       O  0.96151759  0.02492204  0.88749169    -0.78800
O1162       O  0.96206079  0.89707055  0.91288655    -0.97800
Zr1163     Zr  0.06269230  0.01699362  0.98768286     2.21500
Zr1164     Zr  0.85749406  0.98230575  0.99358083     2.11100
O1165       O  0.89951808  0.04194001  0.96020633    -2.46500
O1166       O  0.00060007  0.05762403  0.95762056    -0.78600
O1167       O  0.90235402  0.05380715  0.01757573    -0.70800
O1168       O  0.02022978  0.94428576  0.96391966    -2.31700
O1169       O  0.00402376  0.07206883  0.01289303    -2.27900
O1170       O  0.91736832  0.92807737  0.96703537    -0.72500
H1171       H  0.90256392  0.93262316  0.53196890     0.79500
H1172       H  0.04537321  0.92174286  0.95442927     0.80600
H1173       H  0.87328996  0.06315986  0.95069927     0.82800
H1174       H  0.02219401  0.10218138  0.02088245     0.80400
H1175       H  0.01158854  0.83101330  0.45075638     0.43400
H1176       H  0.00035032  0.88655977  0.91381503     0.42400
H1177       H  0.93357826  0.05311738  0.88721394     0.42100
H1178       H  0.88811665  0.14758691  0.93480277     0.40000
H1179       H  0.94759864  0.22553700  0.99383517     0.43200
H1180       H  0.94802492  0.13948028  0.55091324     0.37900
H1181       H  0.02190349  0.95982598  0.58205042     0.44100
H1182       H  0.99954524  0.82852656  0.53583376     0.40500
H1183       H  0.90979271  0.20058204  0.94961825     0.45400
H1184       H  0.97697359  0.12022450  0.57753512     0.44100
H1185       H  0.00525961  0.88596938  0.54866599     0.44200
H1186       H  0.94361525  0.87221638  0.92610496     0.44600
O1187       O  0.45069226  0.45240390  0.78589111    -0.74300
O1188       O  0.46256619  0.37385225  0.76969536    -0.53200
C1189       C  0.43913525  0.40234745  0.78717743     0.79500
O1190       O  0.34868888  0.62396722  0.72630638    -0.58900
O1191       O  0.41001597  0.69235401  0.73097491    -0.51900
C1192       C  0.36343411  0.67358880  0.72503886     0.71500
O1193       O  0.37402379  0.44966793  0.72759464    -0.73400
O1194       O  0.44443844  0.39853814  0.71695618    -0.54000
C1195       C  0.39531952  0.41176004  0.71399204     0.77500
O1196       O  0.47521095  0.63695331  0.80620115    -0.58600
O1197       O  0.45885624  0.71180531  0.78479490    -0.51700
C1198       C  0.44620675  0.67886008  0.80366309     0.74100
Zr1199     Zr  0.44438616  0.54461114  0.79921323     2.54700
O1200       O  0.35291111  0.55030666  0.81795234    -0.79100
O1201       O  0.44725221  0.51599000  0.84678095    -0.92500
Zr1202     Zr  0.39880177  0.54435468  0.72186006     2.64700
O1203       O  0.30308949  0.52994923  0.71120719    -0.97500
O1204       O  0.39659153  0.54932718  0.67225093    -0.79600
O1205       O  0.42369842  0.49329493  0.75993699    -0.82900
O1206       O  0.41565277  0.59822493  0.76181043    -2.17600
O1207       O  0.57112877  0.64744817  0.76876004    -0.66300
O1208       O  0.54592580  0.72847851  0.77032590    -0.50900
C1209       C  0.57910056  0.69384781  0.77816910     0.72500
O1210       O  0.56869508  0.46978019  0.67936172    -0.59200
O1211       O  0.56267127  0.40900618  0.71453164    -0.51200
C1212       C  0.57725539  0.42403557  0.69078083     0.74300
O1213       O  0.50340199  0.64433939  0.69108520    -0.70600
O1214       O  0.51983738  0.71888555  0.71251872    -0.49300
C1215       C  0.52912440  0.68946534  0.69218922     0.75600
O1216       O  0.63532512  0.46815537  0.77708182    -0.65900
O1217       O  0.56996557  0.40274484  0.77245748    -0.53100
C1218       C  0.61573147  0.42034021  0.78059979     0.74000
Zr1219     Zr  0.59815353  0.55673408  0.77223389     2.77500
O1220       O  0.69077777  0.57799740  0.75788502    -0.96700
O1221       O  0.64406856  0.56798802  0.81537934    -0.77500
Zr1222     Zr  0.54968237  0.55911157  0.69619365     2.70100
O1223       O  0.64375266  0.58315451  0.68641288    -0.78800
O1224       O  0.54753589  0.55788506  0.64655846    -0.97800
Zr1225     Zr  0.50478658  0.44792965  0.74598952     2.21500
Zr1226     Zr  0.49080882  0.65871883  0.74849120     2.11100
O1227       O  0.57460684  0.61230628  0.73405072    -2.46500
O1228       O  0.57941951  0.50475623  0.73323804    -0.78600
O1229       O  0.51919356  0.60233728  0.78718590    -0.70800
O1230       O  0.47784595  0.49977814  0.70772158    -2.31700
O1231       O  0.52514938  0.49831234  0.78702739    -2.27900
O1232       O  0.46959196  0.60491506  0.70914449    -0.72500
H1233       H  0.38485791  0.61723978  0.76880819     0.79500
H1234       H  0.47071380  0.47813397  0.69209097     0.80600
H1235       H  0.60471264  0.63480522  0.72746626     0.82800
H1236       H  0.53657227  0.47659783  0.80230984     0.80400
H1237       H  0.39023474  0.58799570  0.66804736     0.43400
H1238       H  0.57693830  0.53406681  0.64046788     0.42400
H1239       H  0.65581356  0.55579991  0.67316902     0.42100
H1240       H  0.71304353  0.54991423  0.76660132     0.40000
H1241       H  0.67671390  0.54553223  0.81407167     0.43200
H1242       H  0.48592189  0.50925393  0.85020718     0.37900
H1243       H  0.33368513  0.57514050  0.80556674     0.44100
H1244       H  0.29408846  0.55884672  0.69793641     0.40500
H1245       H  0.69169788  0.56924094  0.73823400     0.45400
H1246       H  0.42983933  0.47947993  0.84701150     0.44100
H1247       H  0.30137710  0.49645849  0.70027884     0.44200
H1248       H  0.51360016  0.53832470  0.64194677     0.44600
C1249       C  0.16970891  0.83714325  0.57818725    -0.04300
C1250       C  0.12490669  0.81769645  0.56415932    -0.01400
C1251       C  0.12070258  0.82843754  0.53642491     0.03600
C1252       C  0.14411272  0.87689154  0.52569180    -0.04300
C1253       C  0.18375870  0.90447786  0.54172394    -0.01400
C1254       C  0.19829953  0.88292172  0.56733650     0.03600
C1255       C  0.07562278  0.80876160  0.57946651     0.38200
C1256       C  0.21025870  0.95442917  0.53247638     0.38200
C1257       C  0.24338570  0.90697581  0.58207457     0.36600
C1258       C  0.09151410  0.78960279  0.51983232     0.36600
N1259       N  0.27959882  0.92587562  0.59367942    -0.38200
N1260       N  0.06875244  0.75819581  0.50655971    -0.38200
N1261       N  0.23138140  0.99484896  0.52594751    -0.37600
N1262       N  0.03651586  0.80232347  0.59223469    -0.37600
C1263       C  0.27891657  0.72358566  0.66122398    -0.04300
C1264       C  0.24810468  0.70133730  0.68384678    -0.01400
C1265       C  0.27338352  0.69188682  0.70854935     0.03600
C1266       C  0.32694002  0.70969204  0.71181270    -0.04300
C1267       C  0.35072916  0.74662016  0.69323878    -0.01400
C1268       C  0.32912222  0.75103493  0.66732791     0.03600
C1269       C  0.18933900  0.69704762  0.68446716     0.38200
C1270       C  0.39824535  0.77930487  0.70039765     0.38200
C1271       C  0.35232463  0.79428621  0.65015975     0.36600
C1272       C  0.24567069  0.66033338  0.72991024     0.36600
N1273       N  0.37010790  0.83056980  0.63763521    -0.38200
N1274       N  0.22370909  0.63369653  0.74630553    -0.38200
N1275       N  0.43589124  0.80569183  0.70568451    -0.37600
N1276       N  0.14259072  0.69370174  0.68612128    -0.37600
C1277       C  0.31903220  0.32284841  0.83489595    -0.04300
C1278       C  0.30436464  0.36391155  0.81661145    -0.01400
C1279       C  0.34482853  0.39528504  0.80377330     0.03600
C1280       C  0.39920908  0.37914779  0.80562875    -0.04300
C1281       C  0.41277640  0.33188749  0.81992568    -0.01400
C1282       C  0.37208153  0.30195155  0.83326005     0.03600
C1283       C  0.24994910  0.36466044  0.80570970     0.38200
C1284       C  0.46837661  0.31341039  0.82039451     0.38200
C1285       C  0.38360790  0.24709329  0.84221442     0.36600
C1286       C  0.32874029  0.44103559  0.78715748     0.36600
N1287       N  0.39244521  0.20283739  0.84849622    -0.38200
N1288       N  0.31284456  0.47702992  0.77443830    -0.38200
N1289       N  0.51260964  0.29883038  0.82062611    -0.37600
N1290       N  0.20705477  0.36428652  0.79638240    -0.37600
C1291       C  0.10325872  0.17827907  0.94810491    -0.04300
C1292       C  0.08812179  0.17440834  0.92045245    -0.01400
C1293       C  0.12464475  0.19170158  0.90014872     0.03600
C1294       C  0.17428488  0.21580462  0.90804103    -0.04300
C1295       C  0.17833826  0.23398622  0.93536217    -0.01400
C1296       C  0.15006815  0.20633593  0.95548606     0.03600
C1297       C  0.03683739  0.15007038  0.91257520     0.38200
C1298       C  0.19687550  0.28858467  0.94175162     0.38200
C1299       C  0.17307680  0.20270136  0.98239554     0.36600
C1300       C  0.10774986  0.19031284  0.87187740     0.36600
N1301       N  0.19467857  0.19784075  0.00305467    -0.38200
N1302       N  0.09290345  0.18919349  0.84955752    -0.38200
N1303       N  0.20921378  0.33307738  0.94625073    -0.37600
N1304       N  0.99626278  0.13141176  0.90533533    -0.37600
C1305       C  0.81262740  0.05427561  0.57619037    -0.04300
C1306       C  0.76038826  0.07221951  0.57131569    -0.01400
C1307       C  0.74500961  0.12167858  0.58193636     0.03600
C1308       C  0.78560307  0.16167505  0.58948418    -0.04300
C1309       C  0.83716420  0.14122259  0.59607987    -0.01400
C1310       C  0.84644516  0.08544207  0.59319999     0.03600
C1311       C  0.72030910  0.03825564  0.55794806     0.38200
C1312       C  0.87691273  0.17390462  0.61036807     0.38200
C1313       C  0.88609034  0.05917818  0.61023574     0.36600
C1314       C  0.68842633  0.12397441  0.59050664     0.36600
N1315       N  0.91654981  0.03869114  0.62465106    -0.38200
N1316       N  0.64354649  0.12449402  0.59749909    -0.38200
N1317       N  0.90951938  0.19829338  0.62209788    -0.37600
N1318       N  0.68612500  0.01342514  0.54766013    -0.37600
C1319       C  0.67786521  0.31253114  0.65414037    -0.04300
C1320       C  0.70059989  0.35245137  0.67097316    -0.01400
C1321       C  0.66715703  0.39241705  0.68092119     0.03600
C1322       C  0.61089322  0.38693283  0.67706479    -0.04300
C1323       C  0.58778912  0.33879395  0.66703623    -0.01400
C1324       C  0.62193528  0.29996107  0.65661161     0.03600
C1325       C  0.75446432  0.34662842  0.68210613     0.38200
C1326       C  0.52969149  0.32857854  0.66797013     0.38200
C1327       C  0.60028960  0.24643673  0.65015205     0.36600
C1328       C  0.69006616  0.43655286  0.69681631     0.36600
N1329       N  0.58350574  0.20346467  0.64541917    -0.38200
N1330       N  0.70849973  0.47128120  0.70965797    -0.38200
N1331       N  0.48361038  0.31923717  0.66860457    -0.37600
N1332       N  0.79713979  0.34184015  0.69127183    -0.37600
C1333       C  0.68645934  0.67747369  0.84127178    -0.04300
C1334       C  0.70701544  0.67518468  0.81446537    -0.01400
C1335       C  0.67185536  0.68721211  0.79332844     0.03600
C1336       C  0.61801055  0.70104717  0.79928080    -0.04300
C1337       C  0.59818430  0.69539128  0.82610377    -0.01400
C1338       C  0.63116457  0.67225474  0.84536792     0.03600
C1339       C  0.76490707  0.67285409  0.80886081     0.38200
C1340       C  0.54882687  0.72012444  0.83512111     0.38200
C1341       C  0.61027111  0.63027639  0.86353727     0.36600
C1342       C  0.69441066  0.69427137  0.76656352     0.36600
N1343       N  0.59419274  0.59582440  0.87779804    -0.38200
N1344       N  0.71801911  0.70033268  0.74643858    -0.38200
N1345       N  0.51124002  0.74224514  0.84329327    -0.37600
N1346       N  0.81081878  0.67212731  0.80395993    -0.37600
C1347       C  0.81854631  0.81171194  0.90635425    -0.04300
C1348       C  0.80250515  0.82758126  0.93205912    -0.01400
C1349       C  0.79261474  0.88211803  0.93553701     0.03600
C1350       C  0.82080085  0.92006454  0.91877366    -0.04300
C1351       C  0.85162168  0.90175683  0.89626372    -0.01400
C1352       C  0.85418913  0.84603964  0.89164715     0.03600
C1353       C  0.79559010  0.78779356  0.95374526     0.38200
C1354       C  0.87235939  0.93883946  0.87530467     0.38200
C1355       C  0.88615272  0.82500579  0.86932384     0.36600
C1356       C  0.74436294  0.89734771  0.95022009     0.36600
N1357       N  0.91147563  0.80879359  0.85131600    -0.38200
N1358       N  0.70240850  0.93509499  0.45519974    -0.38200
N1359       N  0.88647299  0.96706481  0.85752282    -0.37600
N1360       N  0.79132548  0.75563140  0.97101748    -0.37600
C1361       C  0.78882289  0.18585917  0.91633585    -0.04300
C1362       C  0.80404345  0.21341212  0.94097353    -0.01400
C1363       C  0.80548254  0.18525493  0.96612745     0.03600
C1364       C  0.78930498  0.13067362  0.96761474    -0.04300
C1365       C  0.75983065  0.10860874  0.94588666    -0.01400
C1366       C  0.76047987  0.13486843  0.92027750     0.03600
C1367       C  0.80880661  0.27203899  0.94235837     0.38200
C1368       C  0.72094066  0.06459299  0.95114670     0.38200
C1369       C  0.71928313  0.11656448  0.90126499     0.36600
C1370       C  0.81742170  0.21390689  0.99120145     0.36600
N1371       N  0.68358656  0.10327384  0.88757474    -0.38200
N1372       N  0.82570401  0.23684762  0.01125943    -0.38200
N1373       N  0.68889310  0.03057799  0.95526187    -0.37600
N1374       N  0.81125820  0.31866992  0.94468008    -0.37600
C1375       C  0.70208595  0.32286843  0.83458753    -0.04300
C1376       C  0.67630876  0.36937222  0.84438084    -0.01400
C1377       C  0.64543584  0.39954443  0.82654328     0.03600
C1378       C  0.64545006  0.38638726  0.79863095    -0.04300
C1379       C  0.68031199  0.34740679  0.78829001    -0.01400
C1380       C  0.71328717  0.31997005  0.80642858     0.03600
C1381       C  0.68630022  0.39006541  0.87158594     0.38200
C1382       C  0.68266402  0.33561228  0.75944608     0.38200
C1383       C  0.76609654  0.30316603  0.79712484     0.36600
C1384       C  0.61384814  0.44358667  0.83732529     0.36600
N1385       N  0.80957648  0.29270513  0.79030748    -0.38200
N1386       N  0.58947429  0.47809223  0.84702634    -0.38200
N1387       N  0.68389399  0.32462730  0.73658231    -0.37600
N1388       N  0.69432337  0.40735271  0.89306172    -0.37600
C1389       C  0.15933510  0.83649617  0.90285916    -0.04300
C1390       C  0.16876253  0.85818524  0.92836461    -0.01400
C1391       C  0.15590216  0.91199367  0.93299254     0.03600
C1392       C  0.11916295  0.93938576  0.91560592    -0.04300
C1393       C  0.09919268  0.91144200  0.89254462    -0.01400
C1394       C  0.11724195  0.85880069  0.88697506     0.03600
C1395       C  0.18083904  0.82275913  0.95111561     0.38200
C1396       C  0.06523974  0.93814131  0.87272938     0.38200
C1397       C  0.09666261  0.83049006  0.86323099     0.36600
C1398       C  0.18793253  0.94008257  0.95302581     0.36600
N1399       N  0.08087573  0.80897515  0.84391422    -0.38200
N1400       N  0.21542473  0.96346424  0.96797060    -0.38200
N1401       N  0.03900573  0.95878136  0.85634553    -0.37600
N1402       N  0.18929706  0.79445233  0.96949806    -0.37600
C1403       C  0.29576647  0.69733309  0.84262150    -0.04300
C1404       C  0.33299949  0.66317778  0.85508585    -0.01400
C1405       C  0.38404758  0.65827532  0.84290381     0.03600
C1406       C  0.39352278  0.68271725  0.81699703    -0.04300
C1407       C  0.34994938  0.70679539  0.80283473    -0.01400
C1408       C  0.29888768  0.70442925  0.81461926     0.03600
C1409       C  0.31867859  0.63441316  0.88014069     0.38200
C1410       C  0.35767206  0.74376175  0.77995992     0.38200
C1411       C  0.25014688  0.71204562  0.79895137     0.36600
C1412       C  0.42768462  0.63596119  0.85873970     0.36600
N1413       N  0.21048768  0.71827242  0.78706704    -0.38200
N1414       N  0.46249726  0.61957836  0.87190804    -0.38200
N1415       N  0.36303723  0.77642309  0.76299494    -0.37600
N1416       N  0.30711325  0.61135097  0.90009160    -0.37600
C1417       C  0.57900397  0.69585844  0.67639792    -0.04300
C1418       C  0.62802925  0.70823694  0.68994691    -0.01400
C1419       C  0.67699289  0.69491999  0.67721011     0.03600
C1420       C  0.67667371  0.68570071  0.64953090    -0.04300
C1421       C  0.63048481  0.66138381  0.63846930    -0.01400
C1422       C  0.58031070  0.67284992  0.65023132     0.03600
C1423       C  0.62801202  0.74133569  0.71410834     0.38200
C1424       C  0.63555389  0.62674083  0.61495268     0.38200
C1425       C  0.53093041  0.66662445  0.63459885     0.36600
C1426       C  0.72919249  0.69330800  0.69021152     0.36600
N1427       N  0.49159927  0.66278831  0.62205341    -0.38200
N1428       N  0.77290860  0.69028913  0.69832666    -0.38200
N1429       N  0.63997524  0.59856349  0.59637907    -0.37600
N1430       N  0.62737118  0.77112009  0.73218601    -0.37600
C1431       C  0.80452656  0.82839026  0.58152914    -0.04300
C1432       C  0.77728465  0.86976301  0.56784097    -0.01400
C1433       C  0.78778228  0.87841060  0.53993901     0.03600
C1434       C  0.83137887  0.85161053  0.52695048    -0.04300
C1435       C  0.86326309  0.81631981  0.54284878    -0.01400
C1436       C  0.85370115  0.81233786  0.57089753     0.03600
C1437       C  0.73463295  0.89870419  0.58162205     0.38200
C1438       C  0.90031319  0.77863223  0.53063998     0.38200
C1439       C  0.89712248  0.80490096  0.58986694     0.36600
C1440       C  0.74884220  0.90858179  0.52439196     0.40000
N1441       N  0.92953606  0.80026130  0.60650625    -0.38200
N1442       N  0.71703506  0.93153986  0.51188487    -0.38200
N1443       N  0.92904601  0.74761892  0.52091877    -0.37600
N1444       N  0.70022861  0.92146050  0.59246818    -0.37600
C1445       C  0.29363272  0.34214007  0.65465139    -0.04300
C1446       C  0.27732825  0.34139940  0.68224402    -0.01400
C1447       C  0.31416600  0.35826349  0.70189172     0.03600
C1448       C  0.36228989  0.38523411  0.69355152    -0.04300
C1449       C  0.37150511  0.39718489  0.66551960    -0.01400
C1450       C  0.33451949  0.37856756  0.64630837     0.03600
C1451       C  0.22202599  0.32691447  0.69004493     0.38200
C1452       C  0.41858874  0.42706587  0.65546875     0.38200
C1453       C  0.33211453  0.40450927  0.61965030     0.36600
C1454       C  0.30475780  0.34295186  0.73011739     0.36600
N1455       N  0.32980067  0.42584002  0.59856653    -0.38200
N1456       N  0.29737408  0.32809634  0.75229155    -0.38200
N1457       N  0.45527720  0.44940430  0.64533843    -0.37600
N1458       N  0.17746581  0.31650795  0.69583169    -0.37600
C1459       C  0.19374372  0.19311511  0.58382135    -0.04300
C1460       C  0.20988272  0.13857164  0.58592687    -0.01400
C1461       C  0.17455362  0.09810985  0.57710088     0.03600
C1462       C  0.12970056  0.11312149  0.56194975    -0.04300
C1463       C  0.12117212  0.16820740  0.55505112    -0.01400
C1464       C  0.15749341  0.20736421  0.56372323     0.03600
C1465       C  0.26373903  0.12480654  0.59484098     0.38200
C1466       C  0.07168886  0.18765108  0.54354732     0.38200
C1467       C  0.16265551  0.25906044  0.54940402     0.36600
C1468       C  0.17860473  0.04339911  0.58749368     0.36600
N1469       N  0.16757459  0.29983835  0.53767634    -0.38200
N1470       N  0.17888630  0.00040385  0.59700778    -0.38200
N1471       N  0.03267570  0.20735165  0.53571130    -0.37600
N1472       N  0.30740980  0.11457984  0.60116828    -0.37600
loop_ 
_geom_bond_atom_site_label_1 
_geom_bond_atom_site_label_2 
_geom_bond_distance 
_geom_bond_site_symmetry_2 
_ccdc_geom_bond_type 
C1            C3   1.592       .  S
C1            C5   1.559       .  S
C1            C4   1.574       .  S
C1          C723   1.483       .  S
C2            C6   1.548       .  S
C2            C8   1.590       .  S
C2            C7   1.578       .  S
C2          C709   1.473       .  S
C3           C11   1.428       .  A
C3            C6   1.363       .  A
C4           C15   1.415       .  A
C4            C7   1.362       .  A
C5           C19   1.409       .  A
C5            C8   1.368       .  A
C6            C9   1.404       .  A
C7           C13   1.425       .  A
C8           C16   1.430       .  A
C9           N10   1.363       .  A
C9           H22   1.082       .  S
N10          C11   1.386       .  A
N10          C44   1.505       .  S
C11          H12   1.081       .  S
C13          N14   1.379       .  A
C13          H23   1.082       .  S
N14          C15   1.377       .  A
N14         C103   1.511       .  S
C15          H21   1.082       .  S
C16          N17   1.384       .  A
C16          H18   1.081       .  S
N17          C19   1.371       .  A
N17         C285   1.511       .  S
C19          H20   1.082       .  S
N24          C29   1.384       .  A
N24          C28   1.380       .  A
N24          H56   1.039       .  S
N25          C32   1.374   1_655  A
N25          C33   1.377       .  A
N26          C31   1.383       .  A
N26          C30   1.387       .  A
N26          H57   1.039       .  S
N27          C34   1.384   1_655  A
N27          C35   1.381       .  A
C28          C36   1.391       .  A
C28          C44   1.472       .  A
C29          C45   1.466       .  A
C29          C37   1.385       .  A
C30          C38   1.390       .  A
C30          C47   1.480       .  A
C31          C46   1.473       .  A
C31          C39   1.387       .  A
C32          C44   1.453       .  A
C32          C40   1.387       .  A
C33          C47   1.451       .  A
C33          C41   1.383       .  A
C34          C42   1.385       .  A
C34          C45   1.469       .  A
C35          C43   1.388       .  A
C35          C46   1.472       .  A
C36          C37   1.391       .  A
C36          H48   1.081       .  S
C37          H49   1.082       .  S
C38          C39   1.394       .  A
C38          H50   1.081       .  S
C39          H51   1.082       .  S
C40          C41   1.377   1_455  A
C40          H52   1.081       .  S
C41          H53   1.079       .  S
C42          C43   1.388   1_455  A
C42          H54   1.081       .  S
C43          H55   1.080       .  S
C45         N375   1.524       .  S
C46          N67   1.519       .  S
C47         N329   1.520       .  S
C58          C60   1.595       .  S
C58          C62   1.589       .  S
C58          C61   1.575       .  S
C58         C695   1.511       .  S
C59          C63   1.576       .  S
C59          C65   1.588       .  S
C59          C64   1.590       .  S
C59         C684   1.509       .  S
C60          C68   1.428       .  A
C60          C63   1.377       .  A
C61          C72   1.427       .  A
C61          C64   1.369       .  A
C62          C76   1.426       .  A
C62          C65   1.371       .  A
C63          C66   1.426       .  A
C64          C70   1.426       .  A
C65          C73   1.428       .  A
C66          N67   1.381       .  A
C66          H79   1.082       .  S
N67          C68   1.377       .  A
C68          H69   1.077       .  S
C70          N71   1.374       .  A
C70          H80   1.077       .  S
N71          C72   1.384       .  A
N71         C135   1.519       .  S
C72          H78   1.082       .  S
C73          N74   1.371       .  A
C73          H75   1.076       .  S
N74          C76   1.375       .  A
N74         C252   1.514       .  S
C76          H77   1.076       .  S
N81          C86   1.384       .  A
N81          C85   1.379       .  A
N81         H113   1.039       .  S
N82          C89   1.372   1_545  A
N82          C90   1.376       .  A
N83          C88   1.380       .  A
N83          C87   1.385       .  A
N83         H114   1.039       .  S
N84          C91   1.380   1_545  A
N84          C92   1.375       .  A
C85          C93   1.387       .  A
C85         C101   1.466       .  A
C86         C102   1.472       .  A
C86          C94   1.389       .  A
C87          C95   1.388       .  A
C87         C104   1.474       .  A
C88         C103   1.470       .  A
C88          C96   1.387       .  A
C89         C101   1.453       .  A
C89          C97   1.388       .  A
C90         C104   1.450       .  A
C90          C98   1.383       .  A
C91          C99   1.382       .  A
C91         C102   1.453       .  A
C92         C100   1.386       .  A
C92         C103   1.461       .  A
C93          C94   1.392       .  A
C93         H105   1.081       .  S
C94         H106   1.081       .  S
C95          C96   1.392       .  A
C95         H107   1.082       .  S
C96         H108   1.078       .  S
C97          C98   1.381   1_565  A
C97         H109   1.082       .  S
C98         H110   1.079       .  S
C99         C100   1.379   1_565  A
C99         H111   1.081       .  S
C100        H112   1.074       .  S
C101        N162   1.500       .  S
C102        N379   1.521       .  S
C104        N356   1.517       .  S
N115        C120   1.376       .  A
N115        C119   1.380   1_545  A
N115        H147   1.040       .  S
N116        C123   1.384       .  A
N116        C124   1.381       .  A
N117        C122   1.386       .  A
N117        C121   1.383   1_545  A
N117        H148   1.040       .  S
N118        C125   1.382       .  A
N118        C126   1.384       .  A
C119        C127   1.383       .  A
C119        C135   1.457       .  A
C120        C136   1.463       .  A
C120        C128   1.390       .  A
C121        C129   1.389       .  A
C121        C138   1.473       .  A
C122        C137   1.471       .  A
C122        C130   1.383       .  A
C123        C135   1.468       .  A
C123        C131   1.384       .  A
C124        C138   1.470       .  A
C124        C132   1.389       .  A
C125        C133   1.387       .  A
C125        C136   1.469       .  A
C126        C134   1.387       .  A
C126        C137   1.472       .  A
C127        C128   1.385   1_565  A
C127        H139   1.080       .  S
C128        H140   1.081       .  S
C129        C130   1.387   1_565  A
C129        H141   1.081       .  S
C130        H142   1.074       .  S
C131        C132   1.386       .  A
C131        H143   1.079       .  S
C132        H144   1.079       .  S
C133        C134   1.387       .  A
C133        H145   1.081       .  S
C134        H146   1.080       .  S
C136        N336   1.510       .  S
C137        N222   1.529       .  S
C138        N313   1.517       .  S
C149        C151   1.576       .  S
C149        C153   1.611       .  S
C149        C152   1.579       .  S
C149        C653   1.534       .  S
C150        C154   1.547       .  S
C150        C156   1.558       .  S
C150        C155   1.585       .  S
C150        C667   1.504       .  S
C151        C159   1.416       .  A
C151        C154   1.372       .  A
C152        C163   1.413       .  A
C152        C155   1.379       .  A
C153        C167   1.439       .  A
C153        C156   1.380       .  A
C154        C157   1.403       .  A
C155        C161   1.427       .  A
C156        C164   1.407       .  A
C157        N158   1.368       .  A
C157        H170   1.082       .  S
N158        C159   1.385       .  A
N158        C193   1.500       .  S
C159        H160   1.082       .  S
C161        N162   1.371       .  A
C161        H171   1.077       .  S
N162        C163   1.367       .  A
C163        H169   1.079       .  S
C164        N165   1.357       .  A
C164        H166   1.079       .  S
N165        C167   1.384       .  A
N165        C250   1.506       .  S
C167        H168   1.077       .  S
N172        C177   1.377       .  A
N172        C176   1.374       .  A
N172        H204   1.040       .  S
N173        C180   1.370   1_655  A
N173        C181   1.372       .  A
N174        C179   1.374       .  A
N174        C178   1.376       .  A
N174        H205   1.039       .  S
N175        C182   1.370   1_655  A
N175        C183   1.369       .  A
C176        C184   1.387       .  A
C176        C192   1.456       .  A
C177        C193   1.459       .  A
C177        C185   1.387       .  A
C178        C186   1.387       .  A
C178        C195   1.457       .  A
C179        C194   1.457       .  A
C179        C187   1.388       .  A
C180        C192   1.447       .  A
C180        C188   1.387       .  A
C181        C195   1.446       .  A
C181        C189   1.385       .  A
C182        C190   1.381       .  A
C182        C193   1.439       .  A
C183        C191   1.383       .  A
C183        C194   1.439       .  A
C184        C185   1.390       .  A
C184        H196   1.081       .  S
C185        H197   1.079       .  S
C186        C187   1.389       .  A
C186        H198   1.082       .  S
C187        H199   1.082       .  S
C188        C189   1.382   1_455  A
C188        H200   1.082       .  S
C189        H201   1.082       .  S
C190        C191   1.376   1_455  A
C190        H202   1.077       .  S
C191        H203   1.079       .  S
C192        N352   1.493       .  S
C194        N306   1.493       .  S
C195        N215   1.500       .  S
C206        C208   1.561       .  S
C206        C210   1.579       .  S
C206        C209   1.585       .  S
C206        C639   1.508       .  S
C207        C211   1.586       .  S
C207        C213   1.605       .  S
C207        C212   1.567       .  S
C207        C625   1.543       .  S
C208        C216   1.408       .  A
C208        C211   1.379       .  A
C209        C220   1.432       .  A
C209        C212   1.367       .  A
C210        C224   1.419       .  A
C210        C213   1.378       .  A
C211        C214   1.421       .  A
C212        C218   1.409       .  A
C213        C221   1.438       .  A
C214        N215   1.379       .  A
C214        H227   1.082       .  S
N215        C216   1.369       .  A
C216        H217   1.082       .  S
C218        N219   1.361       .  A
C218        H228   1.081       .  S
N219        C220   1.380       .  A
N219        C283   1.505       .  S
C220        H226   1.076       .  S
C221        N222   1.392       .  A
C221        H223   1.082       .  S
N222        C224   1.378       .  A
C224        H225   1.082       .  S
N229        C234   1.378       .  A
N229        C233   1.382       .  A
N229        H261   1.038       .  S
N230        C237   1.376       .  A
N230        C974   1.373       .  A
N231        C236   1.381       .  A
N231        C235   1.382       .  A
N231        H262   1.040       .  S
N232        C239   1.376       .  A
N232        C976   1.378       .  A
C233        C241   1.385       .  A
C233        C249   1.465       .  A
C234        C250   1.471       .  A
C234        C242   1.391       .  A
C235        C243   1.387       .  A
C235        C252   1.467       .  A
C236        C251   1.467       .  A
C236        C244   1.386       .  A
C237        C249   1.451       .  A
C237        C245   1.383       .  A
C238        C252   1.458       .  A
C238        C246   1.386       .  A
C238        N966   1.379   1_554  A
C239        C247   1.385       .  A
C239        C250   1.455       .  A
C240        C248   1.389       .  A
C240        C251   1.474       .  A
C240        N968   1.383   1_554  A
C241        C242   1.394       .  A
C241        H253   1.082       .  S
C242        H254   1.081       .  S
C243        C244   1.388       .  A
C243        H255   1.081       .  S
C244        H256   1.076       .  S
C245        C982   1.378       .  A
C245        H257   1.081       .  S
C246        C981   1.382   1_554  A
C246        H258   1.081       .  S
C247        C984   1.380       .  A
C247        H259   1.081       .  S
C248        C983   1.388   1_554  A
C248        H260   1.081       .  S
C249        N310   1.512       .  S
C251        N382   1.523       .  S
N263        C267   1.377       .  A
N263       C1004   1.381       .  A
N263        H295   1.040       .  S
N264        C271   1.375       .  A
N264        C272   1.376       .  A
N265        C269   1.377       .  A
N265       C1006   1.376       .  A
N265        H296   1.039       .  S
N266        C273   1.376       .  A
N266        C274   1.379       .  A
C267        C275   1.391       .  A
C267        C283   1.467       .  A
C268        C284   1.451       .  A
C268        C276   1.386       .  A
C268        N999   1.374   1_554  A
C269        C277   1.389       .  A
C269        C286   1.460       .  A
C270        C285   1.462       .  A
C270        C278   1.386       .  A
C270       N1001   1.380   1_554  A
C271        C283   1.456       .  A
C271        C279   1.387       .  A
C272        C286   1.455       .  A
C272        C280   1.385       .  A
C273        C281   1.386       .  A
C273        C284   1.462       .  A
C274        C282   1.383       .  A
C274        C285   1.456       .  A
C275       C1012   1.387       .  A
C275        H287   1.081       .  S
C276       C1011   1.383   1_554  A
C276        H288   1.082       .  S
C277       C1014   1.388       .  A
C277        H289   1.082       .  S
C278       C1013   1.386   1_554  A
C278        H290   1.082       .  S
C279        C280   1.382       .  A
C279        H291   1.081       .  S
C280        H292   1.080       .  S
C281        C282   1.383       .  A
C281        H293   1.075       .  S
C282        H294   1.081       .  S
C284        N333   1.501       .  S
C286        N359   1.506       .  S
C297        C299   1.558       .  S
C297        C301   1.590       .  S
C297        C300   1.610       .  S
C297        C611   1.495       .  S
C298        C302   1.539       .  S
C298        C304   1.571       .  S
C298        C303   1.575       .  S
C298        C597   1.456       .  S
C299        C307   1.417       .  A
C299        C302   1.347       .  A
C300        C311   1.428       .  A
C300        C303   1.383       .  A
C301        C315   1.423       .  A
C301        C304   1.362       .  A
C302        C305   1.402       .  A
C303        C309   1.424       .  A
C304        C312   1.422       .  A
C305        N306   1.361       .  A
C305        H318   1.082       .  S
N306        C307   1.382       .  A
C307        H308   1.082       .  S
C309        N310   1.374       .  A
C309        H319   1.081       .  S
N310        C311   1.377       .  A
C311        H317   1.075       .  S
C312        N313   1.380       .  A
C312        H314   1.082       .  S
N313        C315   1.376       .  A
C315        H316   1.072       .  S
C320        C322   1.618       .  S
C320        C324   1.575       .  S
C320        C323   1.584       .  S
C320        C572   1.528       .  S
C321        C325   1.574       .  S
C321        C327   1.546       .  S
C321        C326   1.557       .  S
C321        C583   1.471       .  S
C322        C330   1.438       .  A
C322        C325   1.396       .  A
C323        C334   1.423       .  A
C323        C326   1.360       .  A
C324        C338   1.419       .  A
C324        C327   1.344       .  A
C325        C328   1.408       .  A
C326        C332   1.410       .  A
C327        C335   1.420       .  A
C328        N329   1.363       .  A
C328        H341   1.079       .  S
N329        C330   1.398       .  A
C330        H331   1.082       .  S
C332        N333   1.368       .  A
C332        H342   1.081       .  S
N333        C334   1.378       .  A
C334        H340   1.082       .  S
C335        N336   1.377       .  A
C335        H337   1.082       .  S
N336        C338   1.375       .  A
C338        H339   1.080       .  S
C343        C345   1.589       .  S
C343        C347   1.557       .  S
C343        C346   1.565       .  S
C343        C541   1.492       .  S
C344        C348   1.567       .  S
C344        C350   1.562       .  S
C344        C349   1.608       .  S
C344        C558   1.513       .  S
C345        C353   1.426       .  A
C345        C348   1.382       .  A
C346        C357   1.407       .  A
C346        C349   1.378       .  A
C347        C361   1.419       .  A
C347        C350   1.348       .  A
C348        C351   1.404       .  A
C349        C355   1.440       .  A
C350        C358   1.414       .  A
C351        N352   1.363       .  A
C351        H364   1.082       .  S
N352        C353   1.375       .  A
C353        H354   1.079       .  S
C355        N356   1.397       .  A
C355        H365   1.082       .  S
N356        C357   1.363       .  A
C357        H363   1.082       .  S
C358        N359   1.372       .  A
C358        H360   1.081       .  S
N359        C361   1.379       .  A
C361        H362   1.082       .  S
C366        C368   1.595       .  S
C366        C370   1.596       .  S
C366        C369   1.565       .  S
C366        C527   1.527       .  S
C367        C371   1.604       .  S
C367        C373   1.578       .  S
C367        C372   1.585       .  S
C367        C513   1.522       .  S
C368        C376   1.431       .  A
C368        C371   1.387       .  A
C369        C380   1.416       .  A
C369        C372   1.360       .  A
C370        C384   1.436       .  A
C370        C373   1.374       .  A
C371        C374   1.433       .  A
C372        C378   1.436       .  A
C373        C381   1.417       .  A
C374        N375   1.378       .  A
C374        H387   1.078       .  S
N375        C376   1.381       .  A
C376        H377   1.082       .  S
C378        N379   1.393       .  A
C378        H388   1.082       .  S
N379        C380   1.367       .  A
C380        H386   1.081       .  S
C381        N382   1.372       .  A
C381        H383   1.080       .  S
N382        C384   1.391       .  A
C384        H385   1.082       .  S
O389       Zr401   2.426   1_455  S
O389        C391   1.283       .  A
O390      Zr1163   2.372   1_554  S
O390        C391   1.277       .  A
C391        C726   1.438       .  S
O392       Zr404   2.431       .  S
O392        C394   1.278   1_556  A
O393      Zr1164   2.404       .  S
O393        C394   1.270   1_556  A
C394        C698   1.484       .  S
O395       Zr404   2.447   1_455  S
O395        C397   1.285   1_556  A
O396      Zr1163   2.411   1_564  S
O396        C397   1.281       .  A
C397        C516   1.494       .  S
O398       Zr401   2.401   1_565  S
O398        C400   1.271   1_565  A
O399      Zr1164   2.421   1_554  S
O399        C400   1.284   1_565  A
C400        C569   1.475       .  S
Zr401       O402   2.435   1_545  S
Zr401       O403   2.440       .  S
Zr401       O407   2.352   1_645  S
Zr401       O408   2.385   1_545  S
Zr401      O1167   2.368       .  S
Zr401      O1169   2.349   1_655  S
O402        H445   0.990   1_655  S
O403        H444   0.990       .  S
O403        H448   0.989       .  S
Zr404       O405   2.444   1_556  S
Zr404       O406   2.433       .  S
Zr404       O408   2.366   1_556  S
Zr404       O407   2.367   1_656  S
Zr404      O1168   2.358   1_655  S
Zr404      O1170   2.399       .  S
O405        H446   0.988   1_655  S
O405        H449   0.986       .  S
O406        H439   0.990   1_655  S
O407      Zr1163   2.355   1_564  S
O408      Zr1164   2.386   1_554  S
O408        H435   0.959       .  S
O409       Zr421   2.452       .  S
O409        C411   1.283       .  A
O410       Zr428   2.373       .  S
O410        C411   1.269       .  A
C411        C628   1.480       .  S
O412       Zr424   2.455   1_455  S
O412        C414   1.285       .  A
O413       Zr427   2.404       .  S
O413        C414   1.274       .  A
C414        C656   1.503   1_545  S
O415       Zr424   2.439       .  S
O415        C417   1.276   1_545  A
O416       Zr428   2.417       .  S
O416        C417   1.275   1_545  A
C417        C614   1.459       .  S
O418       Zr421   2.448   1_455  S
O418        C420   1.288       .  A
O419       Zr427   2.333       .  S
O419        C420   1.265       .  A
C420        C555   1.451       .  S
Zr421       O422   2.440       .  S
Zr421       O423   2.432       .  S
Zr421       O429   2.328       .  S
Zr421       O430   2.382   1_655  S
Zr421       O433   2.331   1_655  S
Zr421       O431   2.383       .  S
O422        H442   0.990       .  S
O422        H447   0.990       .  S
O423        H443   0.990       .  S
Zr424       O425   2.431       .  S
Zr424       O426   2.440   1_545  S
Zr424       O430   2.370   1_655  S
Zr424       O429   2.404       .  S
Zr424       O434   2.395   1_545  S
Zr424       O432   2.377   1_645  S
O425        H441   0.990       .  S
O426        H440   0.989       .  S
O426        H450   0.987       .  S
Zr427      O1126   2.385       .  S
Zr427      O1132   2.387   1_545  S
Zr427       O430   2.385       .  S
Zr427       O432   2.370   1_545  S
Zr427       O433   2.348       .  S
Zr427      O1143   2.355   1_545  S
Zr428      O1129   2.404   1_545  S
Zr428      O1135   2.422       .  S
Zr428       O429   2.419       .  S
Zr428       O431   2.387       .  S
Zr428       O434   2.395   1_545  S
Zr428      O1144   2.379   1_545  S
O429        H437   0.963       .  S
O431      Zr1137   2.360       .  S
O432      Zr1140   2.351   1_455  S
O432        H436   0.962       .  S
O433      Zr1137   2.348   1_455  S
O433        H438   0.952       .  S
O434      Zr1140   2.389       .  S
O451       Zr463   2.388       .  S
O451        C453   1.263       .  A
O452       Zr489   2.410       .  S
O452        C453   1.259       .  A
C453        C544   1.438       .  S
O454       Zr466   2.373       .  S
O454        C456   1.266       .  A
O455       Zr490   2.421       .  S
O455        C456   1.280       .  A
C456        C530   1.471       .  S
O457       Zr466   2.382       .  S
O457        C459   1.266       .  A
O458       Zr489   2.342       .  S
O458        C459   1.264       .  A
C459        C712   1.417       .  S
O460       Zr463   2.416       .  S
O460        C462   1.281       .  A
O461       Zr490   2.367       .  S
O461        C462   1.270       .  A
C462        C670   1.450       .  S
Zr463       O464   2.419       .  S
Zr463       O465   2.441       .  S
Zr463       O469   2.371       .  S
Zr463       O470   2.388       .  S
Zr463       O493   2.311       .  S
Zr463       O495   2.357       .  S
O464        H507   0.990       .  S
O465        H506   0.989       .  S
O465        H510   0.989       .  S
Zr466       O467   2.439       .  S
Zr466       O468   2.436       .  S
Zr466       O470   2.409       .  S
Zr466       O469   2.342       .  S
Zr466       O494   2.381       .  S
Zr466       O496   2.341       .  S
O467        H508   0.989       .  S
O467        H511   0.990       .  S
O468        H501   0.991       .  S
O469       Zr489   2.417       .  S
O470       Zr490   2.400       .  S
O470        H497   0.963       .  S
O471       Zr483   2.332       .  S
O471        C473   1.247       .  A
O472       Zr490   2.398       .  S
O472        C473   1.260       .  A
C473        C600   1.400       .  S
O474       Zr486   2.375       .  S
O474        C476   1.271       .  A
O475       Zr489   2.333       .  S
O475        C476   1.270       .  A
C476        C586   1.412       .  S
O477       Zr486   2.420       .  S
O477        C479   1.271       .  A
O478       Zr490   2.388       .  S
O478        C479   1.263       .  A
C479        C681   1.459       .  S
O480       Zr483   2.438       .  S
O480        C482   1.277       .  A
O481       Zr489   2.384       .  S
O481        C482   1.264       .  A
C482        C642   1.468       .  S
Zr483       O484   2.430       .  S
Zr483       O485   2.435       .  S
Zr483       O491   2.431       .  S
Zr483       O492   2.355       .  S
Zr483       O495   2.349       .  S
Zr483       O493   2.402       .  S
O484        H504   0.988       .  S
O484        H509   0.988       .  S
O485        H505   0.990       .  S
Zr486       O487   2.430       .  S
Zr486       O488   2.438       .  S
Zr486       O492   2.389       .  S
Zr486       O491   2.355       .  S
Zr486       O496   2.369       .  S
Zr486       O494   2.349       .  S
O487        H503   0.990       .  S
O488        H502   0.989       .  S
O488        H512   0.989       .  S
Zr489       O492   2.387       .  S
Zr489       O494   2.387       .  S
Zr489       O495   2.439       .  S
Zr490       O491   2.518       .  S
Zr490       O493   2.453       .  S
Zr490       O496   2.390       .  S
O491        H499   0.976       .  S
O494        H498   0.955       .  S
O495        H500   0.958       .  S
C513        C514   1.386       .  A
C513        C518   1.418       .  A
C514        C515   1.389       .  A
C514        C519   1.443       .  S
C515        C516   1.414       .  A
C515        C522   1.445       .  S
C516        C517   1.425       .  A
C517        C518   1.415       .  A
C517        C520   1.448       .  S
C518        C521   1.455       .  S
C519        N526   1.156       .  T
C520        N525   1.157       .  T
C521        N523   1.158       .  T
C522        N524   1.157       .  T
C527        C528   1.430       .  A
C527        C532   1.432       .  A
C528        C529   1.398       .  A
C528        C533   1.453       .  S
C529        C530   1.410       .  A
C529        C536   1.456       .  S
C530        C531   1.408       .  A
C531        C532   1.405       .  A
C531        C534   1.455       .  S
C532        C535   1.453       .  S
C533        N540   1.158       .  T
C534        N539   1.157       .  T
C535        N537   1.157       .  T
C536        N538   1.158       .  T
C541        C542   1.391       .  A
C541        C546   1.428       .  A
C542        C543   1.385       .  A
C542        C547   1.448       .  S
C543        C544   1.414       .  A
C543        C550   1.450       .  S
C544        C545   1.400       .  A
C545        C546   1.390       .  A
C545        C548   1.456       .  S
C546        C549   1.457       .  S
C547        N554   1.158       .  T
C548        N553   1.157       .  T
C549        N551   1.158       .  T
C550        N552   1.157       .  T
C555        C556   1.406       .  A
C555        C560   1.390       .  A
C556        C557   1.396       .  A
C556        C561   1.450       .  S
C557        C558   1.419       .  A
C557        C564   1.450       .  S
C558        C559   1.444       .  A
C559        C560   1.392       .  A
C559        C562   1.454       .  S
C560        C563   1.451       .  S
C561        N568   1.157       .  T
C562        N567   1.158       .  T
C563        N565   1.157       .  T
C564        N566   1.157       .  T
C569        C570   1.399       .  A
C569        C574   1.412       .  A
C570        C571   1.391       .  A
C570        C575   1.454       .  S
C571        C572   1.446       .  A
C571        C578   1.459       .  S
C572        C573   1.419       .  A
C573        C574   1.413       .  A
C573        C576   1.449       .  S
C574        C577   1.452       .  S
C575        N582   1.156       .  T
C576        N581   1.157       .  T
C577        N579   1.157       .  T
C578        N580   1.158       .  T
C583        C584   1.390       .  A
C583        C588   1.411       .  A
C584        C585   1.385       .  A
C584        C589   1.453       .  S
C585        C586   1.417       .  A
C585        C592   1.452       .  S
C586        C587   1.404       .  A
C587        C588   1.380       .  A
C587        C590   1.456       .  S
C588        C591   1.453       .  S
C589        N596   1.158       .  T
C590        N595   1.158       .  T
C591        N593   1.157       .  T
C592        N594   1.157       .  T
C597        C598   1.420       .  A
C597        C602   1.398       .  A
C598        C599   1.376       .  A
C598        C603   1.456       .  S
C599        C600   1.390       .  A
C599        C606   1.444       .  S
C600        C601   1.404       .  A
C601        C602   1.377       .  A
C601        C604   1.444       .  S
C602        C605   1.451       .  S
C603        N610   1.157       .  T
C604        N609   1.155       .  T
C605        N607   1.158       .  T
C606        N608   1.155       .  T
C611        C612   1.375       .  A
C611        C616   1.405       .  A
C612        C613   1.384       .  A
C612        C617   1.447       .  S
C613        C614   1.413       .  A
C613        C620   1.444       .  S
C614        C615   1.415       .  A
C615        C616   1.398       .  A
C615        C618   1.453       .  S
C616        C619   1.451       .  S
C617        N624   1.157       .  T
C618        N623   1.157       .  T
C619        N621   1.157       .  T
C620       N1358   1.156       .  T
N622       C1356   1.156       .  T
C625        C626   1.443       .  A
C625        C630   1.437       .  A
C626        C627   1.410       .  A
C626        C631   1.449       .  S
C627        C628   1.395       .  A
C627        C634   1.456       .  S
C628        C629   1.406       .  A
C629        C630   1.405       .  A
C629        C632   1.455       .  S
C630        C633   1.456       .  S
C631        N638   1.158       .  T
C632        N637   1.157       .  T
C633        N635   1.157       .  T
C634        N636   1.158       .  T
C639        C640   1.389       .  A
C639        C644   1.419       .  A
C640        C641   1.383       .  A
C640        C645   1.447       .  S
C641        C642   1.414       .  A
C641        C648   1.441       .  S
C642        C643   1.408       .  A
C643        C644   1.404       .  A
C643        C646   1.439       .  S
C644        C647   1.452       .  S
C645        N652   1.158       .  T
C646        N651   1.152       .  T
C647        N649   1.158       .  T
C648        N650   1.155       .  T
C653        C654   1.388       .  A
C653        C658   1.418       .  A
C654        C655   1.397       .  A
C654        C659   1.446       .  S
C655        C656   1.425       .  A
C655        C662   1.445       .  S
C656        C657   1.419       .  A
C657        C658   1.414       .  A
C657        C660   1.451       .  S
C658        C661   1.451       .  S
C659        N666   1.157       .  T
C660        N665   1.157       .  T
C661        N663   1.157       .  T
C662        N664   1.156       .  T
C667        C668   1.420       .  A
C667        C672   1.384       .  A
C668        C669   1.398       .  A
C668        C673   1.453       .  S
C669        C670   1.408       .  A
C669        C676   1.452       .  S
C670        C671   1.414       .  A
C671        C672   1.382       .  A
C671        C674   1.449       .  S
C672        C675   1.444       .  S
C673        N680   1.157       .  T
C674        N679   1.157       .  T
C675        N677   1.156       .  T
C676        N678   1.157       .  T
C681        C682   1.415       .  A
C681        C686   1.410       .  A
C682        C683   1.403       .  A
C682        C687   1.448       .  S
C683        C684   1.401       .  A
C683        C690   1.450       .  S
C684        C685   1.393       .  A
C685        C686   1.392       .  A
C685        C688   1.450       .  S
C686        C689   1.451       .  S
C687        N694   1.157       .  T
C688        N693   1.158       .  T
C689        N691   1.158       .  T
C690        N692   1.157       .  T
C695        C696   1.399       .  A
C695        C700   1.383       .  A
C696        C697   1.402       .  A
C696        C701   1.452       .  S
C697        C698   1.427       .  A
C697        C704   1.446       .  S
C698        C699   1.419       .  A
C699        C700   1.392       .  A
C699        C702   1.448       .  S
C700        C703   1.443       .  S
C701        N708   1.157       .  T
C702        N707   1.157       .  T
C703        N705   1.156       .  T
C704        N706   1.155       .  T
C709        C710   1.418       .  A
C709        C714   1.398       .  A
C710        C711   1.382       .  A
C710        C715   1.454       .  S
C711        C712   1.401       .  A
C711        C718   1.452       .  S
C712        C713   1.413       .  A
C713        C714   1.381       .  A
C713        C716   1.446       .  S
C714        C717   1.453       .  S
C715        N722   1.157       .  T
C716        N721   1.157       .  T
C717        N719   1.158       .  T
C718        N720   1.157       .  T
C723        C724   1.416       .  A
C723        C728   1.387       .  A
C724        C725   1.391       .  A
C724        C729   1.451       .  S
C725        C726   1.398       .  A
C725        C732   1.446       .  S
C726        C727   1.420       .  A
C727        C728   1.384       .  A
C727        C730   1.441       .  S
C728        C731   1.455       .  S
C729        N736   1.158       .  T
C730        N735   1.155       .  T
C731        N733   1.158       .  T
C732        N734   1.155   1_545  T
C737        C739   1.585       .  S
C737        C741   1.543       .  S
C737        C740   1.570       .  S
C737       C1459   1.483       .  S
C738        C742   1.564       .  S
C738        C744   1.591       .  S
C738        C743   1.582       .  S
C738       C1445   1.497       .  S
C739        C747   1.424       .  A
C739        C742   1.374       .  A
C740        C751   1.415       .  A
C740        C743   1.364       .  A
C741        C755   1.402       .  A
C741        C744   1.369       .  A
C742        C745   1.409       .  A
C743        C749   1.423       .  A
C744        C752   1.427       .  A
C745        N746   1.374       .  A
C745        H758   1.082       .  S
N746        C747   1.383       .  A
N746        C780   1.510       .  S
C747        H748   1.081       .  S
C749        N750   1.379       .  A
C749        H759   1.081       .  S
N750        C751   1.375       .  A
N750        C839   1.510       .  S
C751        H757   1.082       .  S
C752        N753   1.381       .  A
C752        H754   1.081       .  S
N753        C755   1.363       .  A
N753       C1021   1.497       .  S
C755        H756   1.083       .  S
N760        C765   1.380       .  A
N760        C764   1.378       .  A
N760        H792   1.039       .  S
N761        C768   1.379   1_655  A
N761        C769   1.379       .  A
N762        C767   1.384       .  A
N762        C766   1.383       .  A
N762        H793   1.038       .  S
N763        C770   1.378   1_655  A
N763        C771   1.378       .  A
C764        C772   1.390       .  A
C764        C780   1.465       .  A
C765        C781   1.462       .  A
C765        C773   1.386       .  A
C766        C774   1.391       .  A
C766        C783   1.477       .  A
C767        C782   1.471       .  A
C767        C775   1.387       .  A
C768        C780   1.460       .  A
C768        C776   1.385       .  A
C769        C783   1.460       .  A
C769        C777   1.384       .  A
C770        C778   1.386       .  A
C770        C781   1.458       .  A
C771        C779   1.386       .  A
C771        C782   1.460       .  A
C772        C773   1.389       .  A
C772        H784   1.081       .  S
C773        H785   1.082       .  S
C774        C775   1.394       .  A
C774        H786   1.081       .  S
C775        H787   1.082       .  S
C776        C777   1.381   1_455  A
C776        H788   1.081       .  S
C777        H789   1.078       .  S
C778        C779   1.383   1_455  A
C778        H790   1.082       .  S
C779        H791   1.080       .  S
C781       N1111   1.509       .  S
C782        N803   1.516       .  S
C783       N1065   1.517       .  S
C794        C796   1.604       .  S
C794        C798   1.585       .  S
C794        C797   1.583       .  S
C794       C1431   1.518       .  S
C795        C799   1.562       .  S
C795        C801   1.574       .  S
C795        C800   1.598       .  S
C795       C1420   1.509       .  S
C796        C804   1.431       .  A
C796        C799   1.376       .  A
C797        C808   1.431       .  A
C797        C800   1.374       .  A
C798        C812   1.423       .  A
C798        C801   1.366       .  A
C799        C802   1.420       .  A
C800        C806   1.426       .  A
C801        C809   1.421       .  A
C802        N803   1.375       .  A
C802        H815   1.082       .  S
N803        C804   1.380       .  A
C804        H805   1.078       .  S
C806        N807   1.371       .  A
C806        H816   1.067       .  S
N807        C808   1.387       .  A
N807        C871   1.524       .  S
C808        H814   1.082       .  S
C809        N810   1.364       .  A
C809        H811   1.071       .  S
N810        C812   1.375       .  A
N810        C988   1.506       .  S
C812        H813   1.079       .  S
N817        C822   1.388       .  A
N817        C821   1.387       .  A
N817        H849   1.039       .  S
N818        C825   1.377   1_545  A
N818        C826   1.378       .  A
N819        C824   1.378       .  A
N819        C823   1.379       .  A
N819        H850   1.040       .  S
N820        C827   1.378   1_545  A
N820        C828   1.376       .  A
C821        C829   1.386       .  A
C821        C837   1.479       .  A
C822        C838   1.485       .  A
C822        C830   1.391       .  A
C823        C831   1.388       .  A
C823        C840   1.463       .  A
C824        C839   1.461       .  A
C824        C832   1.386       .  A
C825        C837   1.460       .  A
C825        C833   1.388       .  A
C826        C840   1.457       .  A
C826        C834   1.385       .  A
C827        C835   1.382       .  A
C827        C838   1.453       .  A
C828        C836   1.383       .  A
C828        C839   1.458       .  A
C829        C830   1.397       .  A
C829        H841   1.079       .  S
C830        H842   1.082       .  S
C831        C832   1.387       .  A
C831        H843   1.081       .  S
C832        H844   1.078       .  S
C833        C834   1.382   1_565  A
C833        H845   1.081       .  S
C834        H846   1.081       .  S
C835        C836   1.379   1_565  A
C835        H847   1.079       .  S
C836        H848   1.074       .  S
C837        N898   1.520       .  S
C838       N1115   1.524       .  S
C840       N1092   1.508       .  S
N851        C856   1.378       .  A
N851        C855   1.380   1_545  A
N851        H883   1.040       .  S
N852        C859   1.387       .  A
N852        C860   1.387       .  A
N853        C858   1.384   1_565  A
N853        C857   1.383       .  A
N853        H884   1.040       .  S
N854        C861   1.382       .  A
N854        C862   1.381       .  A
C855        C863   1.385       .  A
C855        C871   1.459       .  A
C856        C872   1.464       .  A
C856        C864   1.390       .  A
C857        C865   1.388       .  A
C857        C874   1.471       .  A
C858        C873   1.469       .  A
C858        C866   1.383       .  A
C859        C871   1.479       .  A
C859        C867   1.387       .  A
C860        C874   1.479       .  A
C860        C868   1.387       .  A
C861        C869   1.384       .  A
C861        C872   1.463       .  A
C862        C870   1.384       .  A
C862        C873   1.469       .  A
C863        C864   1.385   1_565  A
C863        H875   1.080       .  S
C864        H876   1.081       .  S
C865        C866   1.386   1_565  A
C865        H877   1.081       .  S
C866        H878   1.074       .  S
C867        C868   1.392       .  A
C867        H879   1.080       .  S
C868        H880   1.081       .  S
C869        C870   1.385       .  A
C869        H881   1.082       .  S
C870        H882   1.073       .  S
C872       N1072   1.513       .  S
C873        N958   1.526       .  S
C874       N1049   1.526       .  S
C885        C887   1.567       .  S
C885        C889   1.618       .  S
C885        C888   1.587       .  S
C885       C1389   1.523       .  S
C886        C890   1.541       .  S
C886        C892   1.585       .  S
C886        C891   1.597       .  S
C886       C1403   1.503       .  S
C887        C895   1.415       .  A
C887        C890   1.364       .  A
C888        C899   1.425       .  A
C888        C891   1.370       .  A
C889        C903   1.444       .  A
C889        C892   1.387       .  A
C890        C893   1.402       .  A
C891        C897   1.437       .  A
C892        C900   1.424       .  A
C893        N894   1.368       .  A
C893        H906   1.082       .  S
N894        C895   1.380       .  A
N894        C929   1.496       .  S
C895        H896   1.082       .  S
C897        N898   1.378       .  A
C897        H907   1.077       .  S
N898        C899   1.376       .  A
C899        H905   1.080       .  S
C900        N901   1.372       .  A
C900        H902   1.079       .  S
N901        C903   1.388       .  A
N901        C986   1.526       .  S
C903        H904   1.077       .  S
N908        C913   1.373       .  A
N908        C912   1.372       .  A
N908        H940   1.040       .  S
N909        C916   1.373       .  A
N909        C917   1.376   1_455  A
N910        C915   1.377       .  A
N910        C914   1.377       .  A
N910        H941   1.039       .  S
N911        C918   1.372   1_655  A
N911        C919   1.371       .  A
C912        C920   1.387       .  A
C912        C928   1.450       .  A
C913        C929   1.452       .  A
C913        C921   1.388       .  A
C914        C922   1.386       .  A
C914        C931   1.460       .  A
C915        C930   1.459       .  A
C915        C923   1.387       .  A
C916        C928   1.457       .  A
C916        C924   1.389       .  A
C917        C931   1.450       .  A
C917        C925   1.383       .  A
C918        C926   1.383       .  A
C918        C929   1.445       .  A
C919        C927   1.386       .  A
C919        C930   1.448       .  A
C920        C921   1.387       .  A
C920        H932   1.082       .  S
C921        H933   1.081       .  S
C922        C923   1.389       .  A
C922        H934   1.080       .  S
C923        H935   1.081       .  S
C924        C925   1.382   1_455  A
C924        H936   1.081       .  S
C925        H937   1.082       .  S
C926        C927   1.380   1_455  A
C926        H938   1.079       .  S
C927        H939   1.080       .  S
C928       N1088   1.495       .  S
C930       N1042   1.500       .  S
C931        N951   1.505       .  S
C942        C944   1.554       .  S
C942        C946   1.581       .  S
C942        C945   1.571       .  S
C942       C1375   1.494       .  S
C943        C947   1.597       .  S
C943        C949   1.607       .  S
C943        C948   1.562       .  S
C943       C1361   1.538       .  S
C944        C952   1.405       .  A
C944        C947   1.376       .  A
C945        C956   1.428       .  A
C945        C948   1.356       .  A
C946        C960   1.418       .  A
C946        C949   1.383       .  A
C947        C950   1.431       .  A
C948        C954   1.405       .  A
C949        C957   1.435       .  A
C950        N951   1.386       .  A
C950        H963   1.082       .  S
N951        C952   1.366       .  A
C952        H953   1.082       .  S
C954        N955   1.358       .  A
C954        H964   1.081       .  S
N955        C956   1.381       .  A
N955       C1019   1.498       .  S
C956        H962   1.082       .  S
C957        N958   1.390       .  A
C957        H959   1.082       .  S
N958        C960   1.378       .  A
C960        H961   1.081       .  S
N965        C970   1.384       .  A
N965        C969   1.383       .  A
N965        H997   1.040       .  S
N966        C973   1.377       .  A
N967        C972   1.383       .  A
N967        C971   1.381       .  A
N967        H998   1.040       .  S
N968        C975   1.384       .  A
C969        C977   1.387       .  A
C969        C985   1.471       .  A
C970        C986   1.476       .  A
C970        C978   1.390       .  A
C971        C979   1.389       .  A
C971        C988   1.472       .  A
C972        C987   1.470       .  A
C972        C980   1.385       .  A
C973        C985   1.459       .  A
C973        C981   1.386       .  A
C974        C988   1.451       .  A
C974        C982   1.387       .  A
C975        C983   1.385       .  A
C975        C986   1.470       .  A
C976        C984   1.387       .  A
C976        C987   1.459       .  A
C977        C978   1.395       .  A
C977        H989   1.082       .  S
C978        H990   1.081       .  S
C979        C980   1.392       .  A
C979        H991   1.081       .  S
C980        H992   1.076       .  S
C981        H993   1.080       .  S
C982        H994   1.081       .  S
C983        H995   1.081       .  S
C984        H996   1.081       .  S
C985       N1046   1.515       .  S
C987       N1118   1.518       .  S
N999       C1003   1.375       .  A
N999       H1031   1.039       .  S
N1000      C1007   1.373       .  A
N1000      C1008   1.369       .  A
N1001      C1005   1.376       .  A
N1001      H1032   1.038       .  S
N1002      C1009   1.374       .  A
N1002      C1010   1.373       .  A
C1003      C1011   1.388       .  A
C1003      C1019   1.455       .  A
C1004      C1020   1.459       .  A
C1004      C1012   1.384       .  A
C1005      C1013   1.384       .  A
C1005      C1022   1.461       .  A
C1006      C1021   1.459       .  A
C1006      C1014   1.388       .  A
C1007      C1019   1.442       .  A
C1007      C1015   1.383       .  A
C1008      C1022   1.447       .  A
C1008      C1016   1.385       .  A
C1009      C1017   1.385       .  A
C1009      C1020   1.452       .  A
C1010      C1018   1.385       .  A
C1010      C1021   1.448       .  A
C1011      H1023   1.081       .  S
C1012      H1024   1.082       .  S
C1013      H1025   1.073       .  S
C1014      H1026   1.082       .  S
C1015      C1016   1.378       .  A
C1015      H1027   1.081       .  S
C1016      H1028   1.075       .  S
C1017      C1018   1.383       .  A
C1017      H1029   1.080       .  S
C1018      H1030   1.082       .  S
C1020      N1069   1.508       .  S
C1022      N1095   1.498       .  S
C1033      C1035   1.552       .  S
C1033      C1037   1.596       .  S
C1033      C1036   1.604       .  S
C1033      C1347   1.503       .  S
C1034      C1038   1.560       .  S
C1034      C1040   1.590       .  S
C1034      C1039   1.587       .  S
C1034      C1333   1.486       .  S
C1035      C1043   1.410       .  A
C1035      C1038   1.358       .  A
C1036      C1047   1.429       .  A
C1036      C1039   1.381       .  A
C1037      C1051   1.430       .  A
C1037      C1040   1.364       .  A
C1038      C1041   1.413       .  A
C1039      C1045   1.430       .  A
C1040      C1048   1.434       .  A
C1041      N1042   1.373       .  A
C1041      H1054   1.082       .  S
N1042      C1043   1.377       .  A
C1043      H1044   1.082       .  S
C1045      N1046   1.370       .  A
C1045      H1055   1.074       .  S
N1046      C1047   1.374       .  A
C1047      H1053   1.069       .  S
C1048      N1049   1.378       .  A
C1048      H1050   1.076       .  S
N1049      C1051   1.378       .  A
C1051      H1052   1.070       .  S
C1056      C1058   1.607       .  S
C1056      C1060   1.571       .  S
C1056      C1059   1.575       .  S
C1056      C1308   1.523       .  S
C1057      C1061   1.579       .  S
C1057      C1063   1.557       .  S
C1057      C1062   1.577       .  S
C1057      C1319   1.485       .  S
C1058      C1066   1.433       .  A
C1058      C1061   1.396       .  A
C1059      C1070   1.420       .  A
C1059      C1062   1.364       .  A
C1060      C1074   1.417       .  A
C1060      C1063   1.347       .  A
C1061      C1064   1.410       .  A
C1062      C1068   1.421       .  A
C1063      C1071   1.426       .  A
C1064      N1065   1.368       .  A
C1064      H1077   1.080       .  S
N1065      C1066   1.393       .  A
C1066      H1067   1.082       .  S
C1068      N1069   1.379       .  A
C1068      H1078   1.082       .  S
N1069      C1070   1.375       .  A
C1070      H1076   1.082       .  S
C1071      N1072   1.382       .  A
C1071      H1073   1.082       .  S
N1072      C1074   1.371       .  A
C1074      H1075   1.080       .  S
C1079      C1081   1.586       .  S
C1079      C1083   1.571       .  S
C1079      C1082   1.569       .  S
C1079      C1277   1.498       .  S
C1080      C1084   1.549       .  S
C1080      C1086   1.568       .  S
C1080      C1085   1.579       .  S
C1080      C1294   1.490       .  S
C1081      C1089   1.428       .  A
C1081      C1084   1.369       .  A
C1082      C1093   1.410       .  A
C1082      C1085   1.375       .  A
C1083      C1097   1.413       .  A
C1083      C1086   1.364       .  A
C1084      C1087   1.398       .  A
C1085      C1091   1.422       .  A
C1086      C1094   1.413       .  A
C1087      N1088   1.361       .  A
C1087      H1100   1.082       .  S
N1088      C1089   1.380       .  A
C1089      H1090   1.081       .  S
C1091      N1092   1.383       .  A
C1091      H1101   1.082       .  S
N1092      C1093   1.374       .  A
C1093      H1099   1.082       .  S
C1094      N1095   1.370       .  A
C1094      H1096   1.082       .  S
N1095      C1097   1.376       .  A
C1097      H1098   1.082       .  S
C1102      C1104   1.567       .  S
C1102      C1106   1.584       .  S
C1102      C1105   1.562       .  S
C1102      C1263   1.497       .  S
C1103      C1107   1.613       .  S
C1103      C1109   1.580       .  S
C1103      C1108   1.598       .  S
C1103      C1249   1.518       .  S
C1104      C1112   1.417       .  A
C1104      C1107   1.385       .  A
C1105      C1116   1.416       .  A
C1105      C1108   1.355       .  A
C1106      C1120   1.432       .  A
C1106      C1109   1.367       .  A
C1107      C1110   1.433       .  A
C1108      C1114   1.446       .  A
C1109      C1117   1.415       .  A
C1110      N1111   1.377       .  A
C1110      H1123   1.075       .  S
N1111      C1112   1.369       .  A
C1112      H1113   1.082       .  S
C1114      N1115   1.399       .  A
C1114      H1124   1.081       .  S
N1115      C1116   1.358       .  A
C1116      H1122   1.080       .  S
C1117      N1118   1.376       .  A
C1117      H1119   1.081       .  S
N1118      C1120   1.384       .  A
C1120      H1121   1.082       .  S
O1125     Zr1137   2.393   1_455  S
O1125      C1127   1.275       .  A
O1126      C1127   1.279       .  A
C1127      C1462   1.431       .  S
O1128     Zr1140   2.415       .  S
O1128      C1130   1.277       .  A
O1129      C1130   1.274       .  A
C1130      C1434   1.488       .  S
O1131     Zr1140   2.428   1_455  S
O1131      C1133   1.282       .  A
O1132      C1133   1.276       .  A
C1133      C1252   1.489       .  S
O1134     Zr1137   2.391   1_565  S
O1134      C1136   1.270   1_565  A
O1135      C1136   1.284       .  A
C1136      C1305   1.467       .  S
Zr1137     O1138   2.435   1_545  S
Zr1137     O1139   2.437       .  S
Zr1137     O1143   2.361   1_645  S
Zr1137     O1144   2.369   1_545  S
O1138      H1181   0.990   1_655  S
O1139      H1180   0.989       .  S
O1139      H1184   0.990       .  S
Zr1140     O1141   2.434       .  S
Zr1140     O1142   2.433       .  S
Zr1140     O1144   2.362       .  S
Zr1140     O1143   2.370   1_655  S
O1141      H1182   0.985       .  S
O1141      H1185   0.989   1_655  S
O1142      H1175   0.991   1_655  S
O1144      H1171   0.962       .  S
O1145     Zr1157   2.442   1_554  S
O1145      C1147   1.278   1_554  A
O1146     Zr1164   2.384   1_545  S
O1146      C1147   1.271       .  A
C1147      C1364   1.480       .  S
O1148     Zr1160   2.452   1_445  S
O1148      C1150   1.284   1_545  A
O1149     Zr1163   2.394       .  S
O1149      C1150   1.273   1_545  A
C1150      C1392   1.499       .  S
O1151     Zr1160   2.427   1_545  S
O1151      C1153   1.270   1_545  A
O1152     Zr1164   2.429       .  S
O1152      C1153   1.278       .  A
C1153      C1350   1.458       .  S
O1154     Zr1157   2.392   1_455  S
O1154      C1156   1.278       .  A
O1155     Zr1163   2.352       .  S
O1155      C1156   1.273       .  A
C1156      C1291   1.423       .  S
Zr1157     O1158   2.434       .  S
Zr1157     O1159   2.433   1_556  S
Zr1157     O1165   2.321       .  S
Zr1157     O1166   2.380   1_655  S
Zr1157     O1169   2.331   1_656  S
Zr1157     O1167   2.358   1_556  S
O1158      H1178   0.986       .  S
O1158      H1183   0.988       .  S
O1159      H1179   0.990   1_554  S
Zr1160     O1161   2.434   1_565  S
Zr1160     O1162   2.439       .  S
Zr1160     O1166   2.353   1_665  S
Zr1160     O1165   2.415   1_565  S
Zr1160     O1170   2.390       .  S
Zr1160     O1168   2.385   1_655  S
O1161      H1177   0.990       .  S
O1162      H1176   0.987   1_655  S
O1162      H1186   0.989       .  S
Zr1163     O1166   2.367       .  S
Zr1163     O1168   2.380   1_545  S
Zr1163     O1169   2.358   1_556  S
Zr1164     O1165   2.404   1_565  S
Zr1164     O1167   2.390   1_566  S
Zr1164     O1170   2.399       .  S
O1165      H1173   0.962       .  S
O1168      H1172   0.962       .  S
O1169      H1174   0.950       .  S
O1187     Zr1199   2.382       .  S
O1187      C1189   1.263       .  A
O1188     Zr1225   2.374       .  S
O1188      C1189   1.259       .  A
C1189      C1280   1.438       .  S
O1190     Zr1202   2.355       .  S
O1190      C1192   1.271       .  A
O1191     Zr1226   2.344       .  S
O1191      C1192   1.269       .  A
C1192      C1266   1.435       .  S
O1193     Zr1202   2.417       .  S
O1193      C1195   1.274       .  A
O1194     Zr1225   2.395       .  S
O1194      C1195   1.272       .  A
C1195      C1448   1.451       .  S
O1196     Zr1199   2.417       .  S
O1196      C1198   1.276       .  A
O1197     Zr1226   2.361       .  S
O1197      C1198   1.258       .  A
C1198      C1406   1.456       .  S
Zr1199     O1200   2.439       .  S
Zr1199     O1201   2.432       .  S
Zr1199     O1205   2.370       .  S
Zr1199     O1206   2.373       .  S
Zr1199     O1229   2.377       .  S
Zr1199     O1231   2.394       .  S
O1200      H1243   0.990       .  S
O1201      H1242   0.989       .  S
O1201      H1246   0.990       .  S
Zr1202     O1203   2.446       .  S
Zr1202     O1204   2.435       .  S
Zr1202     O1206   2.413       .  S
Zr1202     O1205   2.336       .  S
Zr1202     O1230   2.363       .  S
Zr1202     O1232   2.353       .  S
O1203      H1244   0.990       .  S
O1203      H1247   0.990       .  S
O1204      H1237   0.990       .  S
O1205     Zr1225   2.412       .  S
O1206     Zr1226   2.439       .  S
O1206      H1233   0.964       .  S
O1207     Zr1219   2.354       .  S
O1207      C1209   1.252       .  A
O1208     Zr1226   2.436       .  S
O1208      C1209   1.256       .  A
C1209      C1336   1.429       .  S
O1210     Zr1222   2.416       .  S
O1210      C1212   1.277       .  A
O1211     Zr1225   2.322       .  S
O1211      C1212   1.265       .  A
C1212      C1322   1.419       .  S
O1213     Zr1222   2.426       .  S
O1213      C1215   1.273       .  A
O1214     Zr1226   2.389       .  S
O1214      C1215   1.261       .  A
C1215      C1417   1.454       .  S
O1216     Zr1219   2.399       .  S
O1216      C1218   1.276       .  A
O1217     Zr1225   2.367       .  S
O1217      C1218   1.272       .  A
C1218      C1378   1.430       .  S
Zr1219     O1220   2.433       .  S
Zr1219     O1221   2.425       .  S
Zr1219     O1227   2.392       .  S
Zr1219     O1228   2.357       .  S
Zr1219     O1231   2.389       .  S
Zr1219     O1229   2.385       .  S
O1220      H1240   0.990       .  S
O1220      H1245   0.990       .  S
O1221      H1241   0.990       .  S
Zr1222     O1223   2.429       .  S
Zr1222     O1224   2.435       .  S
Zr1222     O1228   2.377       .  S
Zr1222     O1227   2.363       .  S
Zr1222     O1232   2.383       .  S
Zr1222     O1230   2.339       .  S
O1223      H1239   0.990       .  S
O1224      H1238   0.990       .  S
O1224      H1248   0.988       .  S
Zr1225     O1228   2.369       .  S
Zr1225     O1230   2.368       .  S
Zr1225     O1231   2.427       .  S
Zr1226     O1227   2.487       .  S
Zr1226     O1229   2.457       .  S
Zr1226     O1232   2.409       .  S
O1227      H1235   0.970       .  S
O1230      H1234   0.954       .  S
O1231      H1236   0.964       .  S
C1249      C1250   1.388       .  A
C1249      C1254   1.417       .  A
C1250      C1251   1.388       .  A
C1250      C1255   1.436       .  S
C1251      C1252   1.412       .  A
C1251      C1258   1.449       .  S
C1252      C1253   1.428       .  A
C1253      C1254   1.411       .  A
C1253      C1256   1.451       .  S
C1254      C1257   1.453       .  S
C1255      N1262   1.154       .  T
C1256      N1261   1.157       .  T
C1257      N1259   1.157       .  T
C1258      N1260   1.157       .  T
C1263      C1264   1.437       .  A
C1263      C1268   1.437       .  A
C1264      C1265   1.387       .  A
C1264      C1269   1.454       .  S
C1265      C1266   1.397       .  A
C1265      C1272   1.456       .  S
C1266      C1267   1.399       .  A
C1267      C1268   1.387       .  A
C1267      C1270   1.458       .  S
C1268      C1271   1.457       .  S
C1269      N1276   1.158       .  T
C1270      N1275   1.157       .  T
C1271      N1273   1.157       .  T
C1272      N1274   1.157       .  T
C1277      C1278   1.402       .  A
C1277      C1282   1.420       .  A
C1278      C1279   1.394       .  A
C1278      C1283   1.452       .  S
C1279      C1280   1.413       .  A
C1279      C1286   1.450       .  S
C1280      C1281   1.403       .  A
C1281      C1282   1.390       .  A
C1281      C1284   1.456       .  S
C1282      C1285   1.454       .  S
C1283      N1290   1.158       .  T
C1284      N1289   1.158       .  T
C1285      N1287   1.157       .  T
C1286      N1288   1.157       .  T
C1291      C1292   1.413       .  A
C1291      C1296   1.389       .  A
C1292      C1293   1.395       .  A
C1292      C1297   1.448       .  S
C1293      C1294   1.411       .  A
C1293      C1300   1.452       .  S
C1294      C1295   1.421       .  A
C1295      C1296   1.371       .  A
C1295      C1298   1.453       .  S
C1296      C1299   1.444       .  S
C1297      N1304   1.155   1_455  T
C1298      N1303   1.158       .  T
C1299      N1301   1.155   1_556  T
C1300      N1302   1.158       .  T
C1305      C1306   1.395       .  A
C1305      C1310   1.409       .  A
C1306      C1307   1.391       .  A
C1306      C1311   1.450       .  S
C1307      C1308   1.446       .  A
C1307      C1314   1.458       .  S
C1308      C1309   1.419       .  A
C1309      C1310   1.409       .  A
C1309      C1312   1.448       .  S
C1310      C1313   1.451       .  S
C1311      N1318   1.156       .  T
C1312      N1317   1.157       .  T
C1313      N1315   1.157       .  T
C1314      N1316   1.158       .  T
C1319      C1320   1.404       .  A
C1319      C1324   1.414       .  A
C1320      C1321   1.389       .  A
C1320      C1325   1.452       .  S
C1321      C1322   1.409       .  A
C1321      C1328   1.454       .  S
C1322      C1323   1.403       .  A
C1323      C1324   1.388       .  A
C1323      C1326   1.452       .  S
C1324      C1327   1.454       .  S
C1325      N1332   1.158       .  T
C1326      N1331   1.157       .  T
C1327      N1329   1.157       .  T
C1328      N1330   1.157       .  T
C1333      C1334   1.407       .  A
C1333      C1338   1.382       .  A
C1334      C1335   1.392       .  A
C1334      C1339   1.456       .  S
C1335      C1336   1.409       .  A
C1335      C1342   1.428       .  S
C1336      C1337   1.404       .  A
C1337      C1338   1.380       .  A
C1337      C1340   1.443       .  S
C1338      C1341   1.444       .  S
C1339      N1346   1.158       .  T
C1340      N1345   1.157       .  T
C1341      N1343   1.157       .  T
C1342      N1344   1.148       .  T
C1347      C1348   1.381       .  A
C1347      C1352   1.399       .  A
C1348      C1349   1.385       .  A
C1348      C1353   1.446       .  S
C1349      C1350   1.409       .  A
C1349      C1356   1.445       .  S
C1350      C1351   1.418       .  A
C1351      C1352   1.399       .  A
C1351      C1354   1.452       .  S
C1352      C1355   1.450       .  S
C1353      N1360   1.157       .  T
C1354      N1359   1.157       .  T
C1355      N1357   1.157       .  T
C1361      C1362   1.441       .  A
C1361      C1366   1.438       .  A
C1362      C1363   1.410       .  A
C1362      C1367   1.452       .  S
C1363      C1364   1.398       .  A
C1363      C1370   1.454       .  S
C1364      C1365   1.404       .  A
C1365      C1366   1.407       .  A
C1365      C1368   1.455       .  S
C1366      C1369   1.455       .  S
C1367      N1374   1.158       .  T
C1368      N1373   1.157       .  T
C1369      N1371   1.157       .  T
C1370      N1372   1.158   1_556  T
C1375      C1376   1.410       .  A
C1375      C1380   1.408       .  A
C1376      C1377   1.387       .  A
C1376      C1381   1.454       .  S
C1377      C1378   1.410       .  A
C1377      C1384   1.452       .  S
C1378      C1379   1.400       .  A
C1379      C1380   1.392       .  A
C1379      C1382   1.448       .  S
C1380      C1383   1.448       .  S
C1381      N1388   1.157       .  T
C1382      N1387   1.156       .  T
C1383      N1385   1.157       .  T
C1384      N1386   1.157       .  T
C1389      C1390   1.385       .  A
C1389      C1394   1.421       .  A
C1390      C1391   1.392       .  A
C1390      C1395   1.447       .  S
C1391      C1392   1.426       .  A
C1391      C1398   1.441       .  S
C1392      C1393   1.418       .  A
C1393      C1394   1.411       .  A
C1393      C1396   1.451       .  S
C1394      C1397   1.454       .  S
C1395      N1402   1.158       .  T
C1396      N1401   1.157       .  T
C1397      N1399   1.157       .  T
C1398      N1400   1.155       .  T
C1403      C1404   1.401       .  A
C1403      C1408   1.383       .  A
C1404      C1405   1.398       .  A
C1404      C1409   1.450       .  S
C1405      C1406   1.416       .  A
C1405      C1412   1.449       .  S
C1406      C1407   1.423       .  A
C1407      C1408   1.383       .  A
C1407      C1410   1.447       .  S
C1408      C1411   1.449       .  S
C1409      N1416   1.157       .  T
C1410      N1415   1.157       .  T
C1411      N1413   1.157       .  T
C1412      N1414   1.157       .  T
C1417      C1418   1.416       .  A
C1417      C1422   1.409       .  A
C1418      C1419   1.403       .  A
C1418      C1423   1.446       .  S
C1419      C1420   1.378       .  A
C1419      C1426   1.445       .  S
C1420      C1421   1.395       .  A
C1421      C1422   1.398       .  A
C1421      C1424   1.448       .  S
C1422      C1425   1.453       .  S
C1423      N1430   1.157       .  T
C1424      N1429   1.157       .  T
C1425      N1427   1.158       .  T
C1426      N1428   1.158       .  T
C1431      C1432   1.403       .  A
C1431      C1436   1.385       .  A
C1432      C1433   1.403       .  A
C1432      C1437   1.451       .  S
C1433      C1434   1.424       .  A
C1433      C1440   1.446       .  S
C1434      C1435   1.418       .  A
C1435      C1436   1.395       .  A
C1435      C1438   1.448       .  S
C1436      C1439   1.439       .  S
C1437      N1444   1.157       .  T
C1438      N1443   1.158       .  T
C1439      N1441   1.155       .  T
C1440      N1442   1.155       .  T
C1445      C1446   1.408       .  A
C1445      C1450   1.394       .  A
C1446      C1447   1.392       .  A
C1446      C1451   1.452       .  S
C1447      C1448   1.406       .  A
C1447      C1454   1.446       .  S
C1448      C1449   1.418       .  A
C1449      C1450   1.393       .  A
C1449      C1452   1.445       .  S
C1450      C1453   1.452       .  S
C1451      N1458   1.157       .  T
C1452      N1457   1.157       .  T
C1453      N1455   1.158       .  T
C1454      N1456   1.155       .  T
C1459      C1460   1.415       .  A
C1459      C1464   1.385       .  A
C1460      C1461   1.388       .  A
C1460      C1465   1.450       .  S
C1461      C1462   1.394       .  A
C1461      C1468   1.444       .  S
C1462      C1463   1.418       .  A
C1463      C1464   1.378       .  A
C1463      C1466   1.440       .  S
C1464      C1467   1.453       .  S
C1465      N1472   1.157       .  T
C1466      N1471   1.155       .  T
C1467      N1469   1.158       .  T
C1468      N1470   1.155       .  T
