geometry optimzed in LAMMPS
_audit_creation_date              2020-12-01 
_audit_creation_method            'lammps2cif' 
_symmetry_space_group_name_H-M    'P1' 
_symmetry_Int_Tables_number       1 
_symmetry_cell_setting            triclinic 
loop_ 
_symmetry_equiv_pos_as_xyz 
  x,y,z 
_cell_length_a                    57.91725006 
_cell_length_b                    57.75057503404961 
_cell_length_c                    44.71490664014253 
_cell_angle_alpha                 89.43261319368483 
_cell_angle_beta                  89.65591826583699 
_cell_angle_gamma                 120.31129591815551 
loop_ 
_atom_site_label 
_atom_site_type_symbol 
_atom_site_fract_x 
_atom_site_fract_y 
_atom_site_fract_z 
_atom_site_charge 
In1        In  0.36565151  0.23147433  0.50070611     1.36900
C2          C  0.36183662  0.21860803  0.44404658     0.77400
O3          O  0.32373473  0.22288929  0.49814411    -0.61000
O4          O  0.35550430  0.26351795  0.49282919    -0.51900
C5          C  0.35570066  0.21890514  0.55794793     0.70100
O6          O  0.34868937  0.20084768  0.53823118    -0.46800
C7          C  0.41642344  0.24641656  0.50551940     0.74800
O8          O  0.35099262  0.20055271  0.46443877    -0.58600
O9          O  0.40827550  0.26307504  0.50723882    -0.48700
O10         O  0.37528914  0.24236169  0.45336557    -0.55100
C11         C  0.33045743  0.24712582  0.49305110     0.85000
O12         O  0.36714705  0.24266392  0.54771423    -0.57000
O13         O  0.39848221  0.22227985  0.50131937    -0.60300
In14       In  0.30829352  0.18047598  0.16853255     1.36900
C15         C  0.32578377  0.18873697  0.11214995     0.77400
O16         O  0.31112676  0.14383745  0.17015881    -0.61000
O17         O  0.27213420  0.13922733  0.17056317    -0.51900
C18         C  0.32519857  0.18744700  0.22434346     0.70100
O19         O  0.34148629  0.19505017  0.20232611    -0.46800
C20         C  0.29161327  0.21508900  0.17004726     0.74800
O21         O  0.34186475  0.19650006  0.13387544    -0.58600
O22         O  0.27573562  0.19035151  0.16593088    -0.48700
O23         O  0.30146128  0.17717590  0.11983679    -0.55100
C24         C  0.28614480  0.12807439  0.17155967     0.85000
O25         O  0.30090680  0.17664513  0.21722038    -0.57000
O26         O  0.31588623  0.22188235  0.17293626    -0.60300
In27       In  0.16450737  0.32803721  0.50025876     1.36900
C28         C  0.18141400  0.34587459  0.55474790     0.77400
O29         O  0.13053100  0.33491426  0.50598540    -0.61000
O30         O  0.12245750  0.29465579  0.50875143    -0.51900
C31         C  0.16566288  0.34338028  0.44412176     0.70100
O32         O  0.17824250  0.36036023  0.46435788    -0.46800
C33         C  0.19661996  0.30904427  0.49056151     0.74800
O34         O  0.18440281  0.36180752  0.53334599    -0.58600
O35         O  0.17154096  0.29367979  0.49337962    -0.48700
O36         O  0.16955102  0.32137764  0.54804660    -0.55100
C37         C  0.11318431  0.31039578  0.50923218     0.85000
O38         O  0.15311886  0.31929006  0.45310322    -0.57000
O39         O  0.20480330  0.33381633  0.49249171    -0.60300
In40       In  0.21080123  0.38116144  0.16753969     1.36900
C41         C  0.22982077  0.34872896  0.16967702     0.77400
O42         O  0.21798238  0.38246009  0.21586530    -0.61000
O43         O  0.17733627  0.36553157  0.20159745    -0.51900
C44         C  0.22394387  0.43161203  0.16961571     0.70100
O45         O  0.24147331  0.42460375  0.16857543    -0.46800
C46         C  0.20130277  0.37554172  0.10976742     0.74800
O47         O  0.24506947  0.37402265  0.16899118    -0.58600
O48         O  0.18235507  0.36354207  0.12883334    -0.48700
O49         O  0.20495542  0.34029828  0.16952214    -0.55100
C50         C  0.19356735  0.37187610  0.22319289     0.85000
O51         O  0.19990521  0.41267261  0.16921149    -0.57000
O52         O  0.22422843  0.38966671  0.12073003    -0.60300
In53       In  0.17800606  0.38271847  0.82832440     1.36900
C54         C  0.19155223  0.37543879  0.77417420     0.77400
O55         O  0.14414215  0.34045328  0.83090571    -0.61000
O56         O  0.13535879  0.37155123  0.82229537    -0.51900
C57         C  0.18400502  0.37618003  0.88586622     0.70100
O58         O  0.19375161  0.36805188  0.86581086    -0.46800
C59         C  0.20863644  0.43559113  0.82822366     0.74800
O60         O  0.19785764  0.36701740  0.79727756    -0.58600
O61         O  0.18333478  0.42407861  0.82899656    -0.48700
O62         O  0.17836570  0.38697698  0.77908627    -0.55100
C63         C  0.12646094  0.34672794  0.82652041     0.85000
O64         O  0.17164995  0.38737381  0.87596169    -0.57000
O65         O  0.21788788  0.41991059  0.82751341    -0.60300
In66       In  0.37463875  0.18612537  0.83508547     1.36900
C67         C  0.36593207  0.19411042  0.77898564     0.77400
O68         O  0.41049757  0.22694397  0.83558742    -0.61000
O69         O  0.41644610  0.19343085  0.83417026    -0.51900
C70         C  0.36479262  0.19130720  0.89174568     0.70100
O71         O  0.36112154  0.20427097  0.87100284    -0.46800
C72         C  0.33995302  0.13447015  0.83367686     0.74800
O73         O  0.35599218  0.20042799  0.80065045    -0.58600
O74         O  0.36495131  0.14357282  0.83497649    -0.48700
O75         O  0.38052023  0.18464254  0.78651554    -0.55100
C76         C  0.42699944  0.21872105  0.83466039     0.85000
O77         O  0.37400070  0.17678142  0.88317924    -0.57000
O78         O  0.33306203  0.15203525  0.83284512    -0.60300
C79         C  0.32001738  0.10552963  0.83302325    -0.20000
C80         C  0.32567833  0.08609520  0.84444205     0.36200
C81         C  0.30619567  0.05881845  0.84269556    -0.26000
C82         C  0.28122491  0.05055255  0.82981161     0.02600
C83         C  0.27539889  0.06996983  0.81877820     0.27400
C84         C  0.29478289  0.09728920  0.82077030    -0.25100
N85         N  0.35096114  0.09406240  0.85814055    -0.82500
H86         H  0.31041422  0.04383299  0.85158007     0.13200
C87         C  0.26164863  0.02140887  0.82790749     0.02600
N88         N  0.25007140  0.06185274  0.80512135    -0.81100
H89         H  0.29038274  0.11219715  0.81204073     0.18100
C90         C  0.23657661  0.01060148  0.84218916    -0.25900
C91         C  0.21922360  0.48248943  0.84150032     0.36100
C92         C  0.22644691  0.46508943  0.82775428    -0.20000
C93         C  0.25158794  0.47587619  0.81367785    -0.25200
C94         C  0.26848684  0.00420747  0.81313019     0.27500
H95         H  0.23155187  0.02386297  0.85385433     0.13200
N96         N  0.19401955  0.47183501  0.85706106    -0.82500
H97         H  0.25712712  0.46257532  0.80301322     0.18100
N98         N  0.29385376  0.01501117  0.79786195    -0.81100
H99         H  0.19179888  0.48733947  0.86581295     0.33700
H100        H  0.19431591  0.46055940  0.87535318     0.38200
H101        H  0.29589437  0.99967957  0.78831328     0.33700
H102        H  0.29406435  0.02712182  0.78020238     0.30400
H103        H  0.24893860  0.07862436  0.79825174     0.33700
H104        H  0.24902093  0.05137120  0.78577498     0.30400
H105        H  0.35199341  0.10449177  0.87755314     0.38200
H106        H  0.35200330  0.07725925  0.86497727     0.33700
C107        C  0.45637777  0.23724303  0.83366168    -0.20000
C108        C  0.46790228  0.26493576  0.83944619     0.36200
C109        C  0.49576708  0.28171777  0.83737299    -0.26000
C110        C  0.01242847  0.27171984  0.82900279     0.02600
C111        C  0.50098229  0.24414400  0.82302729     0.27400
C112        C  0.47314178  0.22714947  0.82586260    -0.25100
N113        N  0.45141332  0.27602520  0.84744967    -0.82500
H114        H  0.50461132  0.30279356  0.84250655     0.13200
C115        C  0.04181859  0.29043067  0.82702781     0.02600
N116        N  0.01760591  0.23361407  0.81355279    -0.81100
H117        H  0.46444196  0.20601360  0.82115299     0.18100
C118        C  0.05899587  0.28454067  0.84315368    -0.25900
C119        C  0.08677427  0.30232308  0.84298786     0.36100
C120        C  0.09755325  0.32670722  0.82654291    -0.20000
C121        C  0.08039467  0.33249922  0.81031578    -0.25200
C122        C  0.05270598  0.31452400  0.81009331     0.27500
H123        H  0.05060823  0.26625735  0.85651699     0.13200
N124        N  0.10388203  0.29599047  0.86007389    -0.82500
H125        H  0.08867076  0.35107681  0.79750717     0.18100
N126        N  0.03559324  0.32060442  0.79267472    -0.81100
H127        H  0.09277295  0.27712111  0.87046784     0.33700
H128        H  0.11205933  0.30993753  0.87720410     0.38200
H129        H  0.04672339  0.33915611  0.78166474     0.33700
H130        H  0.02708343  0.30615178  0.77608008     0.30400
H131        H  0.50610312  0.21296634  0.81010028     0.33700
H132        H  0.02609861  0.24247342  0.79282187     0.30400
H133        H  0.44293295  0.26815068  0.86847931     0.38200
H134        H  0.46298841  0.29681134  0.84983460     0.33700
C135        C  0.18648508  0.37347708  0.91859321    -0.20000
C136        C  0.19374927  0.35559953  0.93143820     0.36200
C137        C  0.19460632  0.35370007  0.96287897    -0.26000
C138        C  0.18872081  0.36954329  0.98145971     0.02600
C139        C  0.18131815  0.38716413  0.96866236     0.27400
C140        C  0.18032194  0.38897026  0.93751320    -0.25100
N141        N  0.19988120  0.33926254  0.91275507    -0.82500
H142        H  0.20048756  0.34033906  0.97293778     0.13200
C143        C  0.19230299  0.36949155  0.01423340     0.02600
N144        N  0.17500646  0.40332023  0.98749868    -0.81100
H145        H  0.17472458  0.40273565  0.92797802     0.18100
C146        C  0.21267769  0.39286401  0.02701568    -0.25900
C147        C  0.21552942  0.39533813  0.05808527     0.36100
C148        C  0.19769446  0.37373934  0.07695324    -0.20000
C149        C  0.17739971  0.35012426  0.06415457    -0.25200
C150        C  0.17460213  0.34774729  0.03282945     0.27500
H151        H  0.22608074  0.40954371  0.01255696     0.13200
N152        N  0.23619662  0.41996850  0.07052630    -0.82500
H153        H  0.16394426  0.33345980  0.07857502     0.18100
N154        N  0.15385496  0.32353420  0.01984565    -0.81100
H155        H  0.24773622  0.43365344  0.05358765     0.33700
H156        H  0.22686413  0.42863589  0.08226345     0.38200
H157        H  0.14267459  0.30938928  0.03658106     0.33700
H158        H  0.14077089  0.32820867  0.00898535     0.30400
H159        H  0.17019741  0.41547436  0.97462782     0.33700
H160        H  0.15784200  0.39032446  0.99995472     0.30400
H161        H  0.21781510  0.35204271  0.90142861     0.38200
H162        H  0.20349593  0.32633077  0.92581689     0.33700
C163        C  0.19846816  0.37223560  0.74332398    -0.20000
C164        C  0.21396284  0.39499245  0.72497792     0.36200
C165        C  0.21520326  0.39192366  0.69393593    -0.26000
C166        C  0.20071570  0.36657259  0.68083741     0.02600
C167        C  0.18628511  0.34362609  0.69956106     0.27400
C168        C  0.18564041  0.34671510  0.73071170    -0.25100
N169        N  0.22761611  0.42120959  0.73793029    -0.82500
H170        H  0.22671598  0.40946481  0.67974536     0.13200
C171        C  0.19926666  0.36440111  0.64755443     0.02600
N172        N  0.17121240  0.31743387  0.68676847    -0.81100
H173        H  0.17350793  0.32934811  0.74493384     0.18100
C174        C  0.20577986  0.34683449  0.63337643    -0.25900
C175        C  0.20148016  0.34171890  0.60263064     0.36100
C176        C  0.19055645  0.35452378  0.58561710    -0.20000
C177        C  0.18592157  0.37360503  0.59917288    -0.25200
C178        C  0.18988044  0.37848720  0.63007904     0.27500
H179        H  0.21365274  0.33658017  0.64654100     0.13200
N180        N  0.20787403  0.32331011  0.58860557    -0.82500
H181        H  0.17767102  0.38350825  0.58601335     0.18100
N182        N  0.18332907  0.39682657  0.64396973    -0.81100
H183        H  0.21567920  0.31554180  0.60416318     0.33700
H184        H  0.22303814  0.33418122  0.57274967     0.38200
H185        H  0.17681716  0.40557574  0.62804284     0.33700
H186        H  0.16721189  0.38571704  0.65863586     0.30400
H187        H  0.16179106  0.30275696  0.70354606     0.33700
H188        H  0.15602030  0.31714284  0.67399455     0.30400
H189        H  0.24197902  0.42182060  0.75251097     0.38200
H190        H  0.23798773  0.43589754  0.72145148     0.33700
C191        C  0.16592744  0.35046429  0.41208638    -0.20000
C192        C  0.14671024  0.33182145  0.39221126     0.36200
C193        C  0.14990598  0.33722002  0.36133506    -0.26000
C194        C  0.17150258  0.36095629  0.34993437     0.02600
C195        C  0.18955329  0.38052713  0.36968242     0.27400
C196        C  0.18657146  0.37509034  0.40069182    -0.25100
N197        N  0.12428175  0.30721980  0.40334096    -0.82500
H198        H  0.13598534  0.32245492  0.34594590     0.13200
C199        C  0.17652696  0.36344601  0.31729761     0.02600
N200        N  0.21093943  0.40563322  0.35813575    -0.81100
H201        H  0.20104312  0.38962165  0.41583976     0.18100
C202        C  0.16404884  0.37349783  0.29874070    -0.25900
C203        C  0.16829286  0.37544188  0.26750541     0.36100
C204        C  0.18543403  0.36728475  0.25498901    -0.20000
C205        C  0.19751505  0.35690030  0.27364515    -0.25200
C206        C  0.19300561  0.35460490  0.30463747     0.27500
H207        H  0.15115931  0.37994960  0.30868916     0.13200
N208        N  0.15638435  0.38682011  0.24874274    -0.82500
H209        H  0.21065977  0.35064771  0.26392627     0.18100
N210        N  0.20473174  0.34293178  0.32330243    -0.81100
H211        H  0.14527193  0.39284989  0.26164565     0.33700
H212        H  0.14278513  0.37165231  0.23489332     0.38200
H213        H  0.21573960  0.33680679  0.31037682     0.33700
H214        H  0.21835581  0.35783469  0.33739669     0.30400
H215        H  0.22220536  0.41795716  0.37563212     0.33700
H216        H  0.22383737  0.40170552  0.34560770     0.30400
H217        H  0.11240798  0.31226929  0.41627912     0.38200
H218        H  0.11235874  0.29563125  0.38576362     0.33700
C219        C  0.27455623  0.09884462  0.17402773    -0.20000
C220        C  0.28869423  0.08801363  0.18843499     0.36200
C221        C  0.27872033  0.06035357  0.18757882    -0.26000
C222        C  0.25498636  0.04338451  0.17268274     0.02600
C223        C  0.24015897  0.05393047  0.15942334     0.27400
C224        C  0.24998448  0.08168425  0.16053841    -0.25100
N225        N  0.31317742  0.10515912  0.20377008    -0.82500
H226        H  0.28969001  0.05194529  0.19818948     0.13200
C227        C  0.24664844  0.01475109  0.17046829     0.02600
N228        N  0.21572870  0.03656109  0.14415928    -0.81100
H229        H  0.23910792  0.09007116  0.14967733     0.18100
C230        C  0.22303503  0.99545520  0.18479300    -0.25900
C231        C  0.21426888  0.46743377  0.18599766     0.36100
C232        C  0.23094535  0.45986274  0.17099551    -0.20000
C233        C  0.25452366  0.47945969  0.15682163    -0.25200
C234        C  0.26297245  0.00688666  0.15538261     0.27500
H235        H  0.21081311  0.00177337  0.19663453     0.13200
N236        N  0.19047462  0.44768468  0.20152489    -0.82500
H237        H  0.26717428  0.47356318  0.14518010     0.18100
N238        N  0.28701771  0.02659279  0.14021747    -0.81100
H239        H  0.18046818  0.45660157  0.21126114     0.33700
H240        H  0.19641417  0.43985584  0.21910969     0.38200
H241        H  0.29682406  0.01753842  0.13033240     0.33700
H242        H  0.28142494  0.03489640  0.12280132     0.30400
H243        H  0.20729546  0.04750399  0.13562151     0.33700
H244        H  0.22056148  0.02869441  0.12576339     0.30400
H245        H  0.30852278  0.11359781  0.22174736     0.38200
H246        H  0.32115225  0.09400823  0.21291638     0.33700
C247        C  0.28262713  0.23473016  0.17121634    -0.20000
C248        C  0.29475997  0.25684089  0.19053215     0.36200
C249        C  0.28620456  0.27564699  0.19023859    -0.26000
C250        C  0.26596703  0.27268929  0.17097796     0.02600
C251        C  0.25388025  0.25069795  0.15165023     0.27400
C252        C  0.26216279  0.23168852  0.15218791    -0.25100
N253        N  0.31543090  0.25990795  0.21056124    -0.82500
H254        H  0.29524256  0.29262987  0.20507141     0.13200
C255        C  0.25728417  0.29261481  0.17153705     0.02600
N256        N  0.23366574  0.24812028  0.13121450    -0.81100
H257        H  0.25307968  0.21479153  0.13724141     0.18100
C258        C  0.26931812  0.31467641  0.15180355    -0.25900
C259        C  0.26076217  0.33349658  0.15095926     0.36100
C260        C  0.24007165  0.33012422  0.17049911    -0.20000
C261        C  0.22814762  0.30808105  0.19031516    -0.25200
C262        C  0.23664952  0.28924877  0.19109155     0.27500
H263        H  0.28504684  0.31688566  0.13672149     0.13200
N264        N  0.27233663  0.35546771  0.12976691    -0.82500
H265        H  0.21219358  0.30560939  0.20520394     0.18100
N266        N  0.22457100  0.26681285  0.21166373    -0.81100
H267        H  0.28725639  0.35498210  0.11699466     0.33700
H268        H  0.25732621  0.35279467  0.11489695     0.38200
H269        H  0.20995890  0.26752198  0.22480817     0.33700
H270        H  0.21467723  0.24931904  0.19914838     0.30400
H271        H  0.22720311  0.23109029  0.11810628     0.33700
H272        H  0.21709726  0.24508641  0.14382997     0.30400
H273        H  0.30690307  0.24377760  0.22578840     0.38200
H274        H  0.32230644  0.27731448  0.22308805     0.33700
C275        C  0.33380366  0.19231364  0.07996941    -0.20000
C276        C  0.36036644  0.20176759  0.06996724     0.36200
C277        C  0.36596317  0.20378199  0.03895031    -0.26000
C278        C  0.34551718  0.19608776  0.01796773     0.02600
C279        C  0.31915065  0.18670187  0.02786485     0.27400
C280        C  0.31361367  0.18512218  0.05861638    -0.25100
N281        N  0.38140512  0.20877505  0.09110048    -0.82500
H282        H  0.38616204  0.21063058  0.03107917     0.13200
C283        C  0.35121500  0.19572317  0.98568928     0.02600
N284        N  0.29796471  0.17811659  0.00655613    -0.81100
H285        H  0.29317809  0.17781245  0.06589588     0.18100
C286        C  0.34615493  0.17147567  0.97327845    -0.25900
C287        C  0.34969219  0.16950531  0.94251313     0.36100
C288        C  0.35879766  0.19243660  0.92377144    -0.20000
C289        C  0.36333203  0.21662128  0.93612662    -0.25200
C290        C  0.35962811  0.21848342  0.96703137     0.27500
H291        H  0.33907980  0.15392399  0.98768677     0.13200
N292        N  0.34367591  0.14417998  0.93014850    -0.82500
H293        H  0.37027633  0.23417308  0.92176926     0.18100
N294        N  0.36454827  0.24335375  0.97960527    -0.81100
H295        H  0.33728988  0.12939648  0.94692425     0.33700
H296        H  0.32758616  0.13819312  0.91565858     0.38200
H297        H  0.37088908  0.25823245  0.96294710     0.33700
H298        H  0.34635887  0.24043879  0.98794904     0.30400
H299        H  0.27956849  0.17120728  0.01745923     0.33700
H300        H  0.30154955  0.19489882  0.99379931     0.30400
H301        H  0.37747140  0.19114990  0.10230892     0.38200
H302        H  0.39976446  0.21594227  0.08000571     0.33700
C303        C  0.35185926  0.21316860  0.59068236    -0.20000
C304        C  0.35849734  0.23394646  0.61150235     0.36200
C305        C  0.35807255  0.22848300  0.64220025    -0.26000
C306        C  0.35049752  0.20272924  0.65271400     0.02600
C307        C  0.34204117  0.18154195  0.63238346     0.27400
C308        C  0.34295897  0.18700699  0.60147830    -0.25100
N309        N  0.36603485  0.26063276  0.60154635    -0.82500
H310        H  0.36416941  0.24453373  0.65810419     0.13200
C311        C  0.35364226  0.19912524  0.68492265     0.02600
N312        N  0.33251493  0.15465168  0.64319453    -0.81100
H313        H  0.33733241  0.17090342  0.58578222     0.18100
C314        C  0.33342949  0.19508447  0.70535967    -0.25900
C315        C  0.33704048  0.19412240  0.73641543     0.36100
C316        C  0.36133677  0.19710250  0.74697580    -0.20000
C317        C  0.38142856  0.20108713  0.72629529    -0.25200
C318        C  0.37793301  0.20234768  0.69544241     0.27500
H319        H  0.31496319  0.19302613  0.69702551     0.13200
N320        N  0.31589111  0.18931851  0.75702108    -0.82500
H321        H  0.40010617  0.20341705  0.73428881     0.18100
N322        N  0.39923875  0.20767800  0.67476249    -0.81100
H323        H  0.29891284  0.18615149  0.74544590     0.33700
H324        H  0.32227723  0.20681566  0.76920893     0.38200
H325        H  0.41607129  0.21029286  0.68619470     0.33700
H326        H  0.39289571  0.19074629  0.66154829     0.30400
H327        H  0.32660207  0.14132977  0.62535798     0.33700
H328        H  0.34842120  0.15412736  0.65336465     0.30400
H329        H  0.34921513  0.25969816  0.59182874     0.38200
H330        H  0.37101460  0.27355053  0.61967117     0.33700
C331        C  0.44485354  0.25448017  0.50810900    -0.20000
C332        C  0.45658136  0.24390595  0.48894154     0.36200
C333        C  0.48379155  0.25221294  0.49192343    -0.26000
C334        C  0.99940998  0.27083745  0.51363590     0.02600
C335        C  0.48755694  0.28105378  0.53313014     0.27400
C336        C  0.46038990  0.27293125  0.52998229    -0.25100
N337        N  0.44102487  0.22542912  0.46596706    -0.82500
H338        H  0.49307239  0.24470933  0.47673485     0.13200
C339        C  0.02851198  0.28075649  0.51437875     0.02600
N340        N  0.50321475  0.29965760  0.55594942    -0.81100
H341        H  0.45121330  0.28080384  0.54481199     0.18100
C342        C  0.04640677  0.30819918  0.50985992    -0.25900
C343        C  0.07413446  0.31856956  0.50928300     0.36100
C344        C  0.08421761  0.30085310  0.51240793    -0.20000
C345        C  0.06619276  0.27334687  0.51723833    -0.25200
C346        C  0.03844423  0.26316183  0.51855746     0.27500
H347        H  0.03862189  0.32159884  0.50655695     0.13200
N348        N  0.09188992  0.34693949  0.50504021    -0.82500
H349        H  0.07373764  0.25969057  0.51988721     0.18100
N350        N  0.02029457  0.23506473  0.52409158    -0.81100
H351        H  0.08111371  0.35675673  0.50154569     0.33700
H352        H  0.10217427  0.35435890  0.52504280     0.38200
H353        H  0.03078963  0.22483365  0.52659037     0.33700
H354        H  0.01057972  0.23319021  0.54452847     0.30400
H355        H  0.49153563  0.30528758  0.56836460     0.33700
H356        H  0.00924978  0.28965586  0.57076561     0.30400
H357        H  0.43534903  0.23560091  0.45095060     0.38200
H358        H  0.45266919  0.21959523  0.45377919     0.33700
C359        C  0.21546807  0.29919996  0.48660760    -0.20000
C360        C  0.20884154  0.27575514  0.47060752     0.36200
C361        C  0.22741990  0.26686366  0.46896090    -0.26000
C362        C  0.25229135  0.28095632  0.48309876     0.02600
C363        C  0.25891752  0.30458239  0.49872514     0.27400
C364        C  0.24061385  0.31365176  0.49988452    -0.25100
N365        N  0.18351159  0.26128891  0.45592894    -0.82500
H366        H  0.22251260  0.24886802  0.45674932     0.13200
C367        C  0.27113081  0.27062337  0.48242821     0.02600
N368        N  0.28395679  0.31888157  0.51404372    -0.81100
H369        H  0.24563432  0.33162338  0.51222940     0.18100
C370        C  0.29702776  0.28703568  0.47073653    -0.25900
C371        C  0.31667187  0.27968210  0.47328968     0.36100
C372        C  0.31025338  0.25534492  0.48804406    -0.20000
C373        C  0.28377739  0.23813278  0.49794616    -0.25200
C374        C  0.26416042  0.24552936  0.49533797     0.27500
H375        H  0.30208014  0.30601617  0.46017020     0.13200
N376        N  0.34283495  0.29662168  0.46042000    -0.82500
H377        H  0.27852095  0.21913792  0.50860230     0.18100
N378        N  0.23741459  0.22798034  0.50641587    -0.81100
H379        H  0.34332776  0.31229189  0.44794854     0.33700
H380        H  0.35606382  0.30565461  0.47800776     0.38200
H381        H  0.23550406  0.21016656  0.51495891     0.33700
H382        H  0.23407411  0.23746003  0.52432309     0.30400
H383        H  0.28580132  0.33591511  0.52433788     0.33700
H384        H  0.28378877  0.30634630  0.53117373     0.30400
H385        H  0.18313031  0.27385526  0.43916658     0.38200
H386        H  0.18178363  0.24449046  0.44520376     0.33700
C387        C  0.33304177  0.19074699  0.25627557    -0.20000
C388        C  0.35901677  0.19784311  0.26580531     0.36200
C389        C  0.36472177  0.20068163  0.29664219    -0.26000
C390        C  0.34492130  0.19624535  0.31788794     0.02600
C391        C  0.31907424  0.18905392  0.30844215     0.27400
C392        C  0.31341026  0.18636250  0.27785019    -0.25100
N393        N  0.37944705  0.20219663  0.24435165    -0.82500
H394        H  0.38468323  0.20661863  0.30416152     0.13200
C395        C  0.35177622  0.20186136  0.34980928     0.02600
N396        N  0.29889996  0.18535196  0.32999379    -0.81100
H397        H  0.29348201  0.18106607  0.27085118     0.18100
C398        C  0.35951271  0.22753399  0.35997031    -0.25900
C399        C  0.36276094  0.23333592  0.39054217     0.36100
C400        C  0.35871279  0.21300489  0.41152813    -0.20000
C401        C  0.35135804  0.18730034  0.40119314    -0.25200
C402        C  0.34778818  0.18150591  0.37043131     0.27500
H403        H  0.36201932  0.24287234  0.34394840     0.13200
N404        N  0.36925683  0.25959234  0.40030271    -0.82500
H405        H  0.34829216  0.17171389  0.41712427     0.18100
N406        N  0.34019250  0.15515134  0.36004194    -0.81100
H407        H  0.37208822  0.27222622  0.38202155     0.33700
H408        H  0.35272055  0.25751997  0.41225284     0.38200
H409        H  0.33837107  0.14258762  0.37801831     0.33700
H410        H  0.32122079  0.14693937  0.35066634     0.30400
H411        H  0.28111941  0.18081892  0.31935221     0.33700
H412        H  0.29460686  0.16864925  0.34334575     0.30400
H413        H  0.37364746  0.18381463  0.23429629     0.38200
H414        H  0.39749726  0.20786780  0.25506876     0.33700
In415      In  0.36458992  0.73097982  0.50070964     1.36900
C416        C  0.36126090  0.71834211  0.44396684     0.77400
O417        O  0.32279190  0.72260109  0.49740414    -0.61000
O418        O  0.35472328  0.76324558  0.49293253    -0.51900
C419        C  0.35362232  0.71796334  0.55771483     0.70100
O420        O  0.34728062  0.70008558  0.53791254    -0.46800
C421        C  0.41533573  0.74581443  0.50611349     0.74800
O422        O  0.35002804  0.70022590  0.46423568    -0.58600
O423        O  0.40719238  0.76247820  0.50777036    -0.48700
O424        O  0.37478866  0.74201613  0.45348490    -0.55100
C425        C  0.32966303  0.74693054  0.49272566     0.85000
O426        O  0.36503052  0.74179790  0.54771780    -0.57000
O427        O  0.39738496  0.72170137  0.50182051    -0.60300
In428      In  0.30717486  0.67969253  0.16849968     1.36900
C429        C  0.32430426  0.68693133  0.11196243     0.77400
O430        O  0.30961303  0.64288758  0.17137385    -0.61000
O431        O  0.27076697  0.63862871  0.17105760    -0.51900
C432        C  0.32435929  0.68730396  0.22422647     0.70100
O433        O  0.34050047  0.69415957  0.20212960    -0.46800
C434        C  0.29079820  0.71456296  0.16924863     0.74800
O435        O  0.34054498  0.69527106  0.13353903    -0.58600
O436        O  0.27480512  0.68979987  0.16547040    -0.48700
O437        O  0.30003968  0.67527988  0.11988403    -0.55100
C438        C  0.28459718  0.62730851  0.17267859     0.85000
O439        O  0.30007481  0.67696948  0.21723778    -0.57000
O440        O  0.31504532  0.72125848  0.17215030    -0.60300
In441      In  0.16365755  0.82799541  0.49948020     1.36900
C442        C  0.18067248  0.84636506  0.55377020     0.77400
O443        O  0.12956364  0.83474622  0.50505911    -0.61000
O444        O  0.12170524  0.79460657  0.50870112    -0.51900
C445        C  0.16476616  0.84302936  0.44317404     0.70100
O446        O  0.17746120  0.86009471  0.46329435    -0.46800
C447        C  0.19589779  0.80906322  0.48998918     0.74800
O448        O  0.18351629  0.86207758  0.53218244    -0.58600
O449        O  0.17079616  0.79368088  0.49250891    -0.48700
O450        O  0.16893401  0.82180768  0.54734745    -0.55100
C451        C  0.11232615  0.81026279  0.50891733     0.85000
O452        O  0.15203523  0.81901032  0.45237760    -0.57000
O453        O  0.20403237  0.83380485  0.49215245    -0.60300
In454      In  0.21081717  0.88132694  0.16638503     1.36900
C455        C  0.22942126  0.84853999  0.16852902     0.77400
O456        O  0.21794972  0.88246679  0.21473660    -0.61000
O457        O  0.17735934  0.86594865  0.20049402    -0.51900
C458        C  0.22459670  0.93198616  0.16840092     0.70100
O459        O  0.24189285  0.92467457  0.16731540    -0.46800
C460        C  0.20130240  0.87558051  0.10855234     0.74800
O461        O  0.24483073  0.87380934  0.16785341    -0.58600
O462        O  0.18231793  0.86391178  0.12764003    -0.48700
O463        O  0.20459436  0.84030185  0.16841640    -0.55100
C464        C  0.19356067  0.87207960  0.22209313     0.85000
O465        O  0.20046646  0.91324400  0.16809817    -0.57000
O466        O  0.22425441  0.88950157  0.11952301    -0.60300
In467      In  0.17699177  0.88321116  0.82742163     1.36900
C468        C  0.19065539  0.87634917  0.77313840     0.77400
O469        O  0.14306154  0.84099288  0.82965019    -0.61000
O470        O  0.13436139  0.87220201  0.82149399    -0.51900
C471        C  0.18311935  0.87623430  0.88480444     0.70100
O472        O  0.19280245  0.86823486  0.86454031    -0.46800
C473        C  0.20759027  0.93606541  0.82799533     0.74800
O474        O  0.19676092  0.86760115  0.79612014    -0.58600
O475        O  0.18229122  0.92455051  0.82885266    -0.48700
O476        O  0.17760155  0.88799650  0.77823458    -0.55100
C477        C  0.12541228  0.84734503  0.82548413     0.85000
O478        O  0.17072752  0.88748022  0.87518147    -0.57000
O479        O  0.21684552  0.92040499  0.82679927    -0.60300
In480      In  0.37362259  0.68628022  0.83437132     1.36900
C481        C  0.36455901  0.69455742  0.77851754     0.77400
O482        O  0.40935251  0.72725474  0.83546242    -0.61000
O483        O  0.41552058  0.69392382  0.83311733    -0.51900
C484        C  0.36337662  0.69082267  0.89112713     0.70100
O485        O  0.35982417  0.70400386  0.87054987    -0.46800
C486        C  0.33971975  0.63442708  0.83234028     0.74800
O487        O  0.35425436  0.70019047  0.80039782    -0.58600
O488        O  0.36477616  0.64397204  0.83382955    -0.48700
O489        O  0.37973955  0.68570238  0.78568654    -0.55100
C490        C  0.42595752  0.71917897  0.83407702     0.85000
O491        O  0.37267474  0.67643354  0.88236062    -0.57000
O492        O  0.33237029  0.65164140  0.83164288    -0.60300
C493        C  0.32020568  0.60538709  0.83140746    -0.20000
C494        C  0.32607847  0.58623732  0.84325864     0.36200
C495        C  0.30687175  0.55886293  0.84156352    -0.26000
C496        C  0.28198916  0.55022248  0.82825390     0.02600
C497        C  0.27602543  0.56935772  0.81659681     0.27400
C498        C  0.29510756  0.59677071  0.81858671    -0.25100
N499        N  0.35126343  0.59459530  0.85740777    -0.82500
H500        H  0.31120781  0.54410457  0.85090433     0.13200
C501        C  0.26255280  0.52100359  0.82679204     0.02600
N502        N  0.25084728  0.56086023  0.80237333    -0.81100
H503        H  0.29057236  0.61146573  0.80947540     0.18100
C504        C  0.23732703  0.51033889  0.84066784    -0.25900
C505        C  0.21839831  0.98276217  0.84255999     0.36100
C506        C  0.22540739  0.96554792  0.82796199    -0.20000
C507        C  0.25037928  0.97649051  0.81346903    -0.25200
C508        C  0.26964282  0.50361364  0.81291835     0.27500
H509        H  0.23211379  0.52374104  0.85168055     0.13200
N510        N  0.19335209  0.97191287  0.85850196    -0.82500
H511        H  0.25573861  0.96332815  0.80214260     0.18100
N512        N  0.29520359  0.51424246  0.79813987    -0.81100
H513        H  0.19128663  0.98729779  0.86789610     0.33700
H514        H  0.19377727  0.96030171  0.87635709     0.38200
H515        H  0.29741719  0.49878549  0.78925342     0.33700
H516        H  0.29560303  0.52604272  0.78004036     0.30400
H517        H  0.24958235  0.57745370  0.79507692     0.33700
H518        H  0.25022171  0.55030950  0.78324447     0.30400
H519        H  0.35190838  0.60503136  0.87666844     0.38200
H520        H  0.35249561  0.57796799  0.86454296     0.33700
C521        C  0.45532158  0.73778805  0.83302967    -0.20000
C522        C  0.46683147  0.76542016  0.83914396     0.36200
C523        C  0.49469144  0.78225404  0.83696244    -0.26000
C524        C  0.01135185  0.77236548  0.82816990     0.02600
C525        C  0.49990782  0.74484219  0.82189476     0.27400
C526        C  0.47208891  0.72780697  0.82481885    -0.25100
N527        N  0.45033728  0.77639297  0.84757889    -0.82500
H528        H  0.50353056  0.80327751  0.84235102     0.13200
C529        C  0.04074041  0.79110766  0.82612570     0.02600
N530        N  0.01650959  0.73440137  0.81204391    -0.81100
H531        H  0.46340379  0.70671809  0.81986459     0.18100
C532        C  0.05798622  0.78500826  0.84178502    -0.25900
C533        C  0.08576550  0.80276569  0.84154463     0.36100
C534        C  0.09648886  0.82736359  0.82553402    -0.20000
C535        C  0.07926404  0.83338179  0.80978328    -0.25200
C536        C  0.05156876  0.81541212  0.80959455     0.27500
H537        H  0.04965566  0.76656935  0.85485797     0.13200
N538        N  0.10293354  0.79617576  0.85812748    -0.82500
H539        H  0.08749231  0.85212204  0.79729901     0.18100
N540        N  0.03439479  0.82170396  0.79259859    -0.81100
H541        H  0.09186344  0.77716114  0.86820125     0.33700
H542        H  0.11117804  0.80986313  0.87549506     0.38200
H543        H  0.04548538  0.84039045  0.78185421     0.33700
H544        H  0.02583557  0.80746606  0.77579506     0.30400
H545        H  0.50500758  0.71377304  0.80843042     0.33700
H546        H  0.02490873  0.74340407  0.79134757     0.30400
H547        H  0.44193830  0.76831855  0.86857911     0.38200
H548        H  0.46190007  0.79715619  0.85018749     0.33700
C549        C  0.18574184  0.87337878  0.91746654    -0.20000
C550        C  0.19277882  0.85524044  0.93005508     0.36200
C551        C  0.19379885  0.85323604  0.96147294    -0.26000
C552        C  0.18829475  0.86923068  0.98026886     0.02600
C553        C  0.18110371  0.88710022  0.96771477     0.27400
C554        C  0.17994984  0.88901109  0.93659872    -0.25100
N555        N  0.19850286  0.83874337  0.91113831    -0.82500
H556        H  0.19951486  0.83967746  0.97133890     0.13200
C557        C  0.19209706  0.86911898  0.01300118     0.02600
N558        N  0.17518603  0.90341707  0.98676843    -0.81100
H559        H  0.17453327  0.90297881  0.92725459     0.18100
C560        C  0.21286509  0.89231024  0.02563215    -0.25900
C561        C  0.21584204  0.89490510  0.05668728     0.36100
C562        C  0.19770622  0.87361647  0.07571335    -0.20000
C563        C  0.17706795  0.85013516  0.06305394    -0.25200
C564        C  0.17416038  0.84763118  0.03173970     0.27500
H565        H  0.22645455  0.90879529  0.01106413     0.13200
N566        N  0.23693114  0.91937469  0.06894605    -0.82500
H567        H  0.16339654  0.83368129  0.07757908     0.18100
N568        N  0.15305273  0.82355935  0.01891448    -0.81100
H569        H  0.24865522  0.93281654  0.05190836     0.33700
H570        H  0.22800626  0.92850494  0.08057179     0.38200
H571        H  0.14173542  0.80959259  0.03573893     0.33700
H572        H  0.14019534  0.82853965  0.00804322     0.30400
H573        H  0.17050537  0.91575737  0.97406314     0.33700
H574        H  0.15803945  0.89054716  0.99931607     0.30400
H575        H  0.21641761  0.85138082  0.89970273     0.38200
H576        H  0.20198422  0.82563105  0.92403313     0.33700
C577        C  0.19762673  0.87336716  0.74222601    -0.20000
C578        C  0.21249816  0.89621689  0.72379723     0.36200
C579        C  0.21371071  0.89318325  0.69274822    -0.26000
C580        C  0.19985089  0.86775006  0.67972731     0.02600
C581        C  0.18613049  0.84474647  0.69853768     0.27400
C582        C  0.18549726  0.84782613  0.72969323    -0.25100
N583        N  0.22560131  0.92246438  0.73669362    -0.82500
H584        H  0.22474925  0.91078272  0.67850554     0.13200
C585        C  0.19840641  0.86548582  0.64644844     0.02600
N586        N  0.17175551  0.81845573  0.68584032    -0.81100
H587        H  0.17387971  0.83037175  0.74398576     0.18100
C588        C  0.20555196  0.84836414  0.63233053    -0.25900
C589        C  0.20130307  0.84309584  0.60161057     0.36100
C590        C  0.18981838  0.85531957  0.58455340    -0.20000
C591        C  0.18457211  0.87402029  0.59802119    -0.25200
C592        C  0.18847332  0.87904616  0.62890595     0.27500
H593        H  0.21388224  0.83856026  0.64552533     0.13200
N594        N  0.20830920  0.82510873  0.58765602    -0.82500
H595        H  0.17589056  0.88347870  0.58481432     0.18100
N596        N  0.18132749  0.89698441  0.64270055    -0.81100
H597        H  0.21648632  0.81774525  0.60324377     0.33700
H598        H  0.22334613  0.83620813  0.57175182     0.38200
H599        H  0.17447621  0.90537889  0.62672021     0.33700
H600        H  0.16530669  0.88563345  0.65739023     0.30400
H601        H  0.16282311  0.80375146  0.70267234     0.33700
H602        H  0.15621183  0.81751683  0.67316418     0.30400
H603        H  0.24026575  0.92355951  0.75114495     0.38200
H604        H  0.23556462  0.93721142  0.72016611     0.33700
C605        C  0.16517124  0.84995929  0.41103615    -0.20000
C606        C  0.14635497  0.83107958  0.39100813     0.36200
C607        C  0.14974071  0.83648873  0.36012871    -0.26000
C608        C  0.17110911  0.86046053  0.34885234     0.02600
C609        C  0.18876981  0.88018755  0.36871683     0.27400
C610        C  0.18560617  0.87474987  0.39972598    -0.25100
N611        N  0.12413721  0.80624763  0.40197964    -0.82500
H612        H  0.13612011  0.82159020  0.34464846     0.13200
C613        C  0.17627453  0.86316902  0.31622455     0.02600
N614        N  0.20996219  0.90546213  0.35728785    -0.81100
H615        H  0.19978347  0.88945106  0.41496070     0.18100
C616        C  0.16370828  0.87314693  0.29769744    -0.25900
C617        C  0.16806452  0.87529121  0.26647041     0.36100
C618        C  0.18542496  0.86742177  0.25391660    -0.20000
C619        C  0.19764120  0.85716254  0.27255758    -0.25200
C620        C  0.19302767  0.85467745  0.30353986     0.27500
H621        H  0.15063799  0.87936520  0.30766345     0.13200
N622        N  0.15602092  0.88656609  0.24776464    -0.82500
H623        H  0.21095876  0.85113224  0.26283253     0.18100
N624        N  0.20494546  0.84318071  0.32217144    -0.81100
H625        H  0.14476352  0.89240243  0.26070310     0.33700
H626        H  0.14253053  0.87139408  0.23384728     0.38200
H627        H  0.21618298  0.83733609  0.30923677     0.33700
H628        H  0.21838680  0.85810843  0.33637011     0.30400
H629        H  0.22094245  0.91789112  0.37485231     0.33700
H630        H  0.22316779  0.90181819  0.34498199     0.30400
H631        H  0.11185767  0.81095764  0.41463571     0.38200
H632        H  0.11254371  0.79449601  0.38430204     0.33700
C633        C  0.27279318  0.59808601  0.17560508    -0.20000
C634        C  0.28668869  0.58726179  0.19056219     0.36200
C635        C  0.27670655  0.55959917  0.18986958    -0.26000
C636        C  0.25323268  0.54264202  0.17454754     0.02600
C637        C  0.23859545  0.55316979  0.16078522     0.27400
C638        C  0.24839842  0.58092230  0.16178144    -0.25100
N639        N  0.31099666  0.60443252  0.20617779    -0.82500
H640        H  0.28753608  0.55119560  0.20082220     0.13200
C641        C  0.24513988  0.51409740  0.17215765     0.02600
N642        N  0.21443833  0.53579593  0.14507292    -0.81100
H643        H  0.23771689  0.58931263  0.15048170     0.18100
C644        C  0.22151464  0.49457862  0.18625403    -0.25900
C645        C  0.21553013  0.96823728  0.18471365     0.36100
C646        C  0.23194125  0.96034835  0.16968487    -0.20000
C647        C  0.25552973  0.97971932  0.15531636    -0.25200
C648        C  0.26172067  0.50655001  0.15709313     0.27500
H649        H  0.20909156  0.50066577  0.19806527     0.13200
N650        N  0.19172333  0.94872865  0.20042103    -0.82500
H651        H  0.26797523  0.97358078  0.14364849     0.18100
N652        N  0.28579319  0.52650730  0.14218698    -0.81100
H653        H  0.18192645  0.95786300  0.21014968     0.33700
H654        H  0.19761659  0.94086621  0.21801621     0.38200
H655        H  0.29580963  0.51767239  0.13229442     0.33700
H656        H  0.28021288  0.53484223  0.12479443     0.30400
H657        H  0.20612656  0.54673238  0.13617783     0.33700
H658        H  0.21959076  0.52796912  0.12690157     0.30400
H659        H  0.30616196  0.61298517  0.22389001     0.38200
H660        H  0.31881470  0.59328508  0.21570918     0.33700
C661        C  0.28193712  0.73430999  0.17013488    -0.20000
C662        C  0.29420553  0.75659041  0.18920395     0.36200
C663        C  0.28560988  0.77536188  0.18882914    -0.26000
C664        C  0.26520211  0.77220832  0.16972944     0.02600
C665        C  0.25303384  0.75009370  0.15057965     0.27400
C666        C  0.26135111  0.73111172  0.15120787    -0.25100
N667        N  0.31503482  0.75985092  0.20909475    -0.82500
H668        H  0.29473768  0.79246354  0.20349158     0.13200
C669        C  0.25649680  0.79211411  0.17022087     0.02600
N670        N  0.23270564  0.74736351  0.13022728    -0.81100
H671        H  0.25217155  0.71409023  0.13643915     0.18100
C672        C  0.26853780  0.81414117  0.15044897    -0.25900
C673        C  0.26006419  0.83302162  0.14962298     0.36100
C674        C  0.23947343  0.82976959  0.16925024    -0.20000
C675        C  0.22750630  0.80773424  0.18907554    -0.25200
C676        C  0.23591264  0.78882358  0.18981532     0.27500
H677        H  0.28422087  0.81628655  0.13533412     0.13200
N678        N  0.27162855  0.85494444  0.12836931    -0.82500
H679        H  0.21161784  0.80534696  0.20401844     0.18100
N680        N  0.22381892  0.76641142  0.21041914    -0.81100
H681        H  0.28646933  0.85436971  0.11553328     0.33700
H682        H  0.25658131  0.85229401  0.11356542     0.38200
H683        H  0.20925702  0.76718348  0.22359308     0.33700
H684        H  0.21386017  0.74890558  0.19793318     0.30400
H685        H  0.22619944  0.73025762  0.11724087     0.33700
H686        H  0.21618915  0.74438305  0.14290684     0.30400
H687        H  0.30663037  0.74386236  0.22450322     0.38200
H688        H  0.32200397  0.77737639  0.22143170     0.33700
C689        C  0.33206082  0.69005607  0.07969533    -0.20000
C690        C  0.35878911  0.70102950  0.06942209     0.36200
C691        C  0.36418893  0.70305768  0.03834832    -0.26000
C692        C  0.34341773  0.69385517  0.01756606     0.02600
C693        C  0.31687328  0.68282096  0.02774066     0.27400
C694        C  0.31149984  0.68120822  0.05853673    -0.25100
N695        N  0.38024663  0.70971301  0.09033923    -0.82500
H696        H  0.38455155  0.71118199  0.03028125     0.13200
C697        C  0.34913810  0.69390831  0.98519874     0.02600
N698        N  0.29540505  0.67282146  0.00665556    -0.81100
H699        H  0.29092826  0.67269126  0.06599795     0.18100
C700        C  0.34418858  0.66985925  0.97233043    -0.25900
C701        C  0.34793320  0.66833666  0.94152174     0.36100
C702        C  0.35712585  0.69151675  0.92317744    -0.20000
C703        C  0.36149288  0.71549383  0.93596729    -0.25200
C704        C  0.35757149  0.71690184  0.96692406     0.27500
H705        H  0.33709501  0.65212031  0.98643003     0.13200
N706        N  0.34207079  0.64321288  0.92871132    -0.82500
H707        H  0.36846449  0.73323069  0.92191408     0.18100
N708        N  0.36218844  0.74151722  0.97992339    -0.81100
H709        H  0.33560497  0.62820172  0.94522685     0.33700
H710        H  0.32607779  0.63739600  0.91411713     0.38200
H711        H  0.36851510  0.75660396  0.96351251     0.33700
H712        H  0.34387259  0.73830387  0.98822310     0.30400
H713        H  0.27694909  0.66489152  0.01773895     0.33700
H714        H  0.29778779  0.68911897  0.99379834     0.30400
H715        H  0.37764765  0.69267458  0.10181375     0.38200
H716        H  0.39863728  0.71787606  0.07905203     0.33700
C717        C  0.34918456  0.71199431  0.59033382    -0.20000
C718        C  0.35316735  0.73215595  0.61096456     0.36200
C719        C  0.35281952  0.72702377  0.64174270    -0.26000
C720        C  0.34793907  0.70212006  0.65243938     0.02600
C721        C  0.34192157  0.68130228  0.63221978     0.27400
C722        C  0.34270864  0.68648524  0.60127011    -0.25100
N723        N  0.35797237  0.75792053  0.60070432    -0.82500
H724        H  0.35702338  0.74275158  0.65754727     0.13200
C725        C  0.35164114  0.69926644  0.68467172     0.02600
N726        N  0.33509325  0.65509018  0.64318579    -0.81100
H727        H  0.33910665  0.67081044  0.58566422     0.18100
C728        C  0.33071477  0.69291821  0.70507267    -0.25900
C729        C  0.33449705  0.69210581  0.73610716     0.36100
C730        C  0.35970031  0.69761521  0.74665312    -0.20000
C731        C  0.38053379  0.70399884  0.72603760    -0.25200
C732        C  0.37685358  0.70512738  0.69521046     0.27500
H733        H  0.31149899  0.68880692  0.69672865     0.13200
N734        N  0.31265474  0.68476821  0.75669672    -0.82500
H735        H  0.39988469  0.70823706  0.73407630     0.18100
N736        N  0.39880318  0.71290400  0.67458272    -0.81100
H737        H  0.29519516  0.68001902  0.74512212     0.33700
H738        H  0.31727668  0.70166055  0.76931704     0.38200
H739        H  0.41619773  0.71728160  0.68603892     0.33700
H740        H  0.39423520  0.69647339  0.66113382     0.30400
H741        H  0.33076835  0.64193105  0.62540159     0.33700
H742        H  0.35183628  0.65662176  0.65370936     0.30400
H743        H  0.34059730  0.75488332  0.59020659     0.38200
H744        H  0.36102980  0.77051580  0.61874473     0.33700
C745        C  0.44378114  0.75387530  0.50877061    -0.20000
C746        C  0.45548349  0.74309022  0.48986382     0.36200
C747        C  0.48272351  0.75148238  0.49282779    -0.26000
C748        C  0.99844452  0.77046738  0.51420111     0.02600
C749        C  0.48663216  0.78097944  0.53335720     0.27400
C750        C  0.45941431  0.77269576  0.53029085    -0.25100
N751        N  0.43988840  0.72435259  0.46710936    -0.82500
H752        H  0.49195604  0.74379077  0.47782775     0.13200
C753        C  0.02759852  0.78046138  0.51486490     0.02600
N754        N  0.50238556  0.80007847  0.55573265    -0.81100
H755        H  0.45028867  0.78079148  0.54487446     0.18100
C756        C  0.04546282  0.80792216  0.51036037    -0.25900
C757        C  0.07320457  0.81834427  0.50965275     0.36100
C758        C  0.08335475  0.80066204  0.51246255    -0.20000
C759        C  0.06538321  0.77315046  0.51735068    -0.25200
C760        C  0.03762357  0.76292034  0.51892472     0.27500
H761        H  0.03764902  0.82130728  0.50716237     0.13200
N762        N  0.09091273  0.84674810  0.50564339    -0.82500
H763        H  0.07297685  0.75952086  0.51983242     0.18100
N764        N  0.01956034  0.73482790  0.52460196    -0.81100
H765        H  0.08010104  0.85657276  0.50251028     0.33700
H766        H  0.10131916  0.85401010  0.52561203     0.38200
H767        H  0.03011141  0.72464694  0.52700186     0.33700
H768        H  0.00997701  0.73299456  0.54512373     0.30400
H769        H  0.49073564  0.80590521  0.56790615     0.33700
H770        H  0.00857280  0.79043400  0.57086022     0.30400
H771        H  0.43417371  0.73435305  0.45189274     0.38200
H772        H  0.45151694  0.71839928  0.45508606     0.33700
C773        C  0.21481810  0.79928203  0.48606128    -0.20000
C774        C  0.20825309  0.77582647  0.47011367     0.36200
C775        C  0.22687163  0.76697790  0.46854277    -0.26000
C776        C  0.25177350  0.78116984  0.48261002     0.02600
C777        C  0.25840825  0.80490316  0.49801961     0.27400
C778        C  0.24001373  0.81386377  0.49921148    -0.25100
N779        N  0.18295505  0.76131736  0.45537987    -0.82500
H780        H  0.22197770  0.74894475  0.45641825     0.13200
C781        C  0.27061398  0.77081588  0.48209160     0.02600
N782        N  0.28356211  0.81944484  0.51306940    -0.81100
H783        H  0.24503039  0.83188678  0.51144705     0.18100
C784        C  0.29659313  0.78723183  0.47059831    -0.25900
C785        C  0.31617408  0.77979371  0.47322466     0.36100
C786        C  0.30958785  0.75532525  0.48776338    -0.20000
C787        C  0.28306238  0.73814602  0.49751740    -0.25200
C788        C  0.26352506  0.74564783  0.49489838     0.27500
H789        H  0.30175382  0.80627197  0.46011233     0.13200
N790        N  0.34244195  0.79677486  0.46062730    -0.82500
H791        H  0.27769836  0.71907875  0.50806034     0.18100
N792        N  0.23673151  0.72811635  0.50585186    -0.81100
H793        H  0.34309279  0.81260171  0.44832225     0.33700
H794        H  0.35555503  0.80558969  0.47836098     0.38200
H795        H  0.23473485  0.71024226  0.51432916     0.33700
H796        H  0.23336979  0.73755281  0.52378402     0.30400
H797        H  0.28541188  0.83655038  0.52318903     0.33700
H798        H  0.28359810  0.80711049  0.53030758     0.30400
H799        H  0.18258382  0.77386735  0.43858039     0.38200
H800        H  0.18127887  0.74453083  0.44468666     0.33700
C801        C  0.33236476  0.69088425  0.25610369    -0.20000
C802        C  0.35773373  0.69601885  0.26570025     0.36200
C803        C  0.36354553  0.69890619  0.29651785    -0.26000
C804        C  0.34441274  0.69644382  0.31767933     0.02600
C805        C  0.31918246  0.69128201  0.30814800     0.27400
C806        C  0.31342783  0.68854330  0.27757340    -0.25100
N807        N  0.37740203  0.69822051  0.24433387    -0.82500
H808        H  0.38305948  0.70327359  0.30408525     0.13200
C809        C  0.35144138  0.70182102  0.34960423     0.02600
N810        N  0.29975394  0.68959088  0.32959614    -0.81100
H811        H  0.29398680  0.68477252  0.27048977     0.18100
C812        C  0.36087347  0.72786423  0.35967236    -0.25900
C813        C  0.36418213  0.73365394  0.39025336     0.36100
C814        C  0.35845891  0.71287857  0.41137696    -0.20000
C815        C  0.34953466  0.68679767  0.40110637    -0.25200
C816        C  0.34586337  0.68103973  0.37033807     0.27500
H817        H  0.36461014  0.74356615  0.34355951     0.13200
N818        N  0.37242628  0.76041053  0.39984192    -0.82500
H819        H  0.34517683  0.67085218  0.41710494     0.18100
N820        N  0.33643662  0.65425615  0.36006253    -0.81100
H821        H  0.37649664  0.77330709  0.38147580     0.33700
H822        H  0.35625414  0.75965238  0.41130068     0.38200
H823        H  0.33355106  0.64137189  0.37811168     0.33700
H824        H  0.31767546  0.64731942  0.35054727     0.30400
H825        H  0.28240667  0.68637172  0.31889746     0.33700
H826        H  0.29417873  0.67273718  0.34325861     0.30400
H827        H  0.37006301  0.67940801  0.23466933     0.38200
H828        H  0.39509940  0.70255030  0.25507520     0.33700
In829      In  0.86565172  0.23147570  0.50070585     1.36900
C830        C  0.86183556  0.21860806  0.44404668     0.77400
O831        O  0.82373491  0.22289114  0.49814510    -0.61000
O832        O  0.85550468  0.26351950  0.49282844    -0.51900
C833        C  0.85570206  0.21890663  0.55794776     0.70100
O834        O  0.84868987  0.20084910  0.53823094    -0.46800
C835        C  0.91642386  0.24641839  0.50551825     0.74800
O836        O  0.85099222  0.20055315  0.46443939    -0.58600
O837        O  0.90827583  0.26307680  0.50723771    -0.48700
O838        O  0.87528813  0.24236195  0.45336497    -0.55100
C839        C  0.83045774  0.24712760  0.49305118     0.85000
O840        O  0.86714871  0.24266542  0.54771408    -0.57000
O841        O  0.89848269  0.22228163  0.50131836    -0.60300
In842      In  0.80829387  0.18047637  0.16853228     1.36900
C843        C  0.82578442  0.18873835  0.11214986     0.77400
O844        O  0.81112755  0.14383810  0.17015730    -0.61000
O845        O  0.77213480  0.13922754  0.17056228    -0.51900
C846        C  0.82519820  0.18744644  0.22434348     0.70100
O847        O  0.84148624  0.19505065  0.20232633    -0.46800
C848        C  0.79161340  0.21508922  0.17004749     0.74800
O849        O  0.84186531  0.19650087  0.13387545    -0.58600
O850        O  0.77573591  0.19035178  0.16593069    -0.48700
O851        O  0.80146189  0.17717732  0.11983652    -0.55100
C852        C  0.78614564  0.12807483  0.17155820     0.85000
O853        O  0.80090650  0.17664414  0.21722003    -0.57000
O854        O  0.81588633  0.22188258  0.17293673    -0.60300
In855      In  0.66450722  0.32803841  0.50025578     1.36900
C856        C  0.68141419  0.34587589  0.55474476     0.77400
O857        O  0.63053069  0.33491505  0.50598317    -0.61000
O858        O  0.62245778  0.29465675  0.50874919    -0.51900
C859        C  0.66566224  0.34338148  0.44411887     0.70100
O860        O  0.67824197  0.36036135  0.46435499    -0.46800
C861        C  0.69661988  0.30904565  0.49055841     0.74800
O862        O  0.68440268  0.36180878  0.53334293    -0.58600
O863        O  0.67154091  0.29368115  0.49337639    -0.48700
O864        O  0.66955131  0.32137893  0.54804351    -0.55100
C865        C  0.61318433  0.31039647  0.50923027     0.85000
O866        O  0.65311820  0.31929127  0.45310029    -0.57000
O867        O  0.70480315  0.33381770  0.49248851    -0.60300
In868      In  0.71080166  0.38116191  0.16753712     1.36900
C869        C  0.72982101  0.34872926  0.16967520     0.77400
O870        O  0.71798245  0.38246053  0.21586279    -0.61000
O871        O  0.67733650  0.36553243  0.20159462    -0.51900
C872        C  0.72394475  0.43161256  0.16961335     0.70100
O873        O  0.74147409  0.42460414  0.16857322    -0.46800
C874        C  0.70130331  0.37554206  0.10976474     0.74800
O875        O  0.74506977  0.37402294  0.16898889    -0.58600
O876        O  0.68235553  0.36354254  0.12883062    -0.48700
O877        O  0.70495570  0.34029867  0.16952023    -0.55100
C878        C  0.69356744  0.37187687  0.22319022     0.85000
O879        O  0.69990602  0.41267329  0.16920887    -0.57000
O880        O  0.72422892  0.38966705  0.12072750    -0.60300
In881      In  0.67800628  0.38271831  0.82832159     1.36900
C882        C  0.69155268  0.37543913  0.77417124     0.77400
O883        O  0.64414248  0.34045297  0.83090234    -0.61000
O884        O  0.63535900  0.37155094  0.82229283    -0.51900
C885        C  0.68400570  0.37617988  0.88586338     0.70100
O886        O  0.69375225  0.36805184  0.86580787    -0.46800
C887        C  0.70863591  0.43559102  0.82822125     0.74800
O888        O  0.69785832  0.36701783  0.79727449    -0.58600
O889        O  0.68333424  0.42407817  0.82899432    -0.48700
O890        O  0.67836595  0.38697708  0.77908347    -0.55100
C891        C  0.62646121  0.34672762  0.82651741     0.85000
O892        O  0.67165034  0.38737341  0.87595903    -0.57000
O893        O  0.71788769  0.41991078  0.82751055    -0.60300
In894      In  0.87463867  0.18612517  0.83508587     1.36900
C895        C  0.86593237  0.19410977  0.77898567     0.77400
O896        O  0.91049729  0.22694383  0.83558705    -0.61000
O897        O  0.91644615  0.19343089  0.83417134    -0.51900
C898        C  0.86479284  0.19130756  0.89174597     0.70100
O899        O  0.86112132  0.20427090  0.87100297    -0.46800
C900        C  0.83995246  0.13447007  0.83367809     0.74800
O901        O  0.85599292  0.20042817  0.80065017    -0.58600
O902        O  0.86495071  0.14357251  0.83497740    -0.48700
O903        O  0.88051976  0.18464112  0.78651610    -0.55100
C904        C  0.92699932  0.21872112  0.83466078     0.85000
O905        O  0.87400125  0.17678198  0.88317978    -0.57000
O906        O  0.83306166  0.15203536  0.83284607    -0.60300
C907        C  0.82001666  0.10552945  0.83302505    -0.20000
C908        C  0.82567774  0.08609506  0.84444317     0.36200
C909        C  0.80619486  0.05881818  0.84269692    -0.26000
C910        C  0.78122389  0.05055262  0.82981363     0.02600
C911        C  0.77539779  0.06996990  0.81878101     0.27400
C912        C  0.79478193  0.09728937  0.82077307    -0.25100
N913        N  0.85096088  0.09406160  0.85814042    -0.82500
H914        H  0.81041359  0.04383265  0.85158073     0.13200
C915        C  0.76164793  0.02140908  0.82790898     0.02600
N916        N  0.75007010  0.06185358  0.80512466    -0.81100
H917        H  0.79038195  0.11219736  0.81204404     0.18100
C918        C  0.73657611  0.01060082  0.84219133    -0.25900
C919        C  0.71922256  0.48248877  0.84149979     0.36100
C920        C  0.72644605  0.46508923  0.82775244    -0.20000
C921        C  0.75158697  0.47587658  0.81367558    -0.25200
C922        C  0.76848631  0.00420822  0.81313038     0.27500
H923        H  0.73155141  0.02386177  0.85385771     0.13200
N924        N  0.69401863  0.47183314  0.85706092    -0.82500
H925        H  0.75712608  0.46257599  0.80300999     0.18100
N926        N  0.79385300  0.01501352  0.79786126    -0.81100
H927        H  0.69179733  0.48733907  0.86581455     0.33700
H928        H  0.69431537  0.46055833  0.87535097     0.38200
H929        H  0.79589464  0.99967926  0.78831033     0.33700
H930        H  0.79406275  0.02712165  0.78020546     0.30400
H931        H  0.74893768  0.07862291  0.79825611     0.33700
H932        H  0.74901945  0.05137120  0.78577652     0.30400
H933        H  0.85199409  0.10449265  0.87755562     0.38200
H934        H  0.85200268  0.07726062  0.86497617     0.33700
C935        C  0.95637774  0.23724341  0.83366237    -0.20000
C936        C  0.96790197  0.26493621  0.83944617     0.36200
C937        C  0.99576686  0.28171840  0.83737345    -0.26000
C938        C  0.51242863  0.27171951  0.82900121     0.02600
C939        C  0.00098239  0.24414435  0.82302946     0.27400
C940        C  0.97314185  0.22714967  0.82586442    -0.25100
N941        N  0.95141272  0.27602560  0.84744823    -0.82500
H942        H  0.00461102  0.30279443  0.84250666     0.13200
C943        C  0.54181871  0.29043033  0.82702566     0.02600
N944        N  0.51760600  0.23361453  0.81354989    -0.81100
H945        H  0.96444224  0.20601391  0.82115559     0.18100
C946        C  0.55899639  0.28453993  0.84315019    -0.25900
C947        C  0.58677484  0.30232224  0.84298384     0.36100
C948        C  0.59755349  0.32670694  0.82653996    -0.20000
C949        C  0.58039456  0.33249926  0.81031398    -0.25200
C950        C  0.55270601  0.31452410  0.81009176     0.27500
H951        H  0.55060906  0.26625627  0.85651276     0.13200
N952        N  0.60388281  0.29598903  0.86006844    -0.82500
H953        H  0.58867040  0.35107751  0.79750638     0.18100
N954        N  0.53559259  0.32060412  0.79267380    -0.81100
H955        H  0.59277381  0.27711917  0.87046190     0.33700
H956        H  0.61206065  0.30993592  0.87719955     0.38200
H957        H  0.54672360  0.33915793  0.78166335     0.33700
H958        H  0.52708455  0.30615407  0.77608084     0.30400
H959        H  0.00610476  0.21296894  0.81010367     0.33700
H960        H  0.52609803  0.24247361  0.79281991     0.30400
H961        H  0.94293163  0.26815086  0.86847896     0.38200
H962        H  0.96298702  0.29681067  0.84983282     0.33700
C963        C  0.68648591  0.37347704  0.91859029    -0.20000
C964        C  0.69374996  0.35559929  0.93143509     0.36200
C965        C  0.69460706  0.35369979  0.96287577    -0.26000
C966        C  0.68872175  0.36954299  0.98145682     0.02600
C967        C  0.68131928  0.38716401  0.96865959     0.27400
C968        C  0.68032302  0.38897023  0.93751056    -0.25100
N969        N  0.69988162  0.33926238  0.91275164    -0.82500
H970        H  0.70048821  0.34033865  0.97293433     0.13200
C971        C  0.69230395  0.36949113  0.01423051     0.02600
N972        N  0.67500744  0.40331974  0.98749637    -0.81100
H973        H  0.67472596  0.40273592  0.92797549     0.18100
C974        C  0.71267892  0.39286339  0.02701286    -0.25900
C975        C  0.71553051  0.39533789  0.05808239     0.36100
C976        C  0.69769522  0.37373942  0.07695052    -0.20000
C977        C  0.67740024  0.35012452  0.06415180    -0.25200
C978        C  0.67460275  0.34774730  0.03282669     0.27500
H979        H  0.72608218  0.40954304  0.01255415     0.13200
N980        N  0.73619757  0.41996800  0.07052368    -0.82500
H981        H  0.66394475  0.33346039  0.07857233     0.18100
N982        N  0.65385500  0.32353434  0.01984322    -0.81100
H983        H  0.74773877  0.43365406  0.05358295     0.33700
H984        H  0.72686590  0.42863536  0.08225914     0.38200
H985        H  0.64267448  0.30939000  0.03657859     0.33700
H986        H  0.64077148  0.32820944  0.00898293     0.30400
H987        H  0.67019849  0.41547489  0.97462492     0.33700
H988        H  0.65784414  0.39032481  0.99995113     0.30400
H989        H  0.71781472  0.35204172  0.90142569     0.38200
H990        H  0.70349645  0.32632924  0.92581448     0.33700
C991        C  0.69846877  0.37223625  0.74332098    -0.20000
C992        C  0.71396335  0.39499315  0.72497505     0.36200
C993        C  0.71520354  0.39192453  0.69393294    -0.26000
C994        C  0.70071603  0.36657353  0.68083436     0.02600
C995        C  0.68628571  0.34362698  0.69955782     0.27400
C996        C  0.68564100  0.34671583  0.73070864    -0.25100
N997        N  0.72761671  0.42121028  0.73792751    -0.82500
H998        H  0.72671623  0.40946570  0.67974249     0.13200
C999        C  0.69926682  0.36440228  0.64755129     0.02600
N1000       N  0.67121354  0.31743466  0.68676560    -0.81100
H1001       H  0.67350858  0.32934892  0.74493071     0.18100
C1002       C  0.70578026  0.34683581  0.63337325    -0.25900
C1003       C  0.70148042  0.34172022  0.60262733     0.36100
C1004       C  0.69055668  0.35452506  0.58561401    -0.20000
C1005       C  0.68592166  0.37360627  0.59916979    -0.25200
C1006       C  0.68988052  0.37848828  0.63007596     0.27500
H1007       H  0.71365333  0.33658175  0.64653767     0.13200
N1008       N  0.70787429  0.32331107  0.58860290    -0.82500
H1009       H  0.67767114  0.38350958  0.58601031     0.18100
N1010       N  0.68332870  0.39682747  0.64396667    -0.81100
H1011       H  0.71567901  0.31554437  0.60415835     0.33700
H1012       H  0.72304017  0.33418345  0.57274471     0.38200
H1013       H  0.67681706  0.40557597  0.62804067     0.33700
H1014       H  0.66721174  0.38571788  0.65863267     0.30400
H1015       H  0.66179286  0.30275876  0.70354206     0.33700
H1016       H  0.65601982  0.31714343  0.67399002     0.30400
H1017       H  0.74198001  0.42182119  0.75250845     0.38200
H1018       H  0.73798806  0.43589800  0.72144931     0.33700
C1019       C  0.66592690  0.35046564  0.41208348    -0.20000
C1020       C  0.64670987  0.33182271  0.39220831     0.36200
C1021       C  0.64990562  0.33722151  0.36133212    -0.26000
C1022       C  0.67150209  0.36095785  0.34993143     0.02600
C1023       C  0.68955267  0.38052873  0.36967963     0.27400
C1024       C  0.68657074  0.37509182  0.40068892    -0.25100
N1025       N  0.62428165  0.30722063  0.40333751    -0.82500
H1026       H  0.63598541  0.32245625  0.34594298     0.13200
C1027       C  0.67652661  0.36344746  0.31729470     0.02600
N1028       N  0.71093876  0.40563464  0.35813256    -0.81100
H1029       H  0.70104248  0.38962332  0.41583690     0.18100
C1030       C  0.66404850  0.37349908  0.29873754    -0.25900
C1031       C  0.66829262  0.37544287  0.26750231     0.36100
C1032       C  0.68543399  0.36728573  0.25498623    -0.20000
C1033       C  0.69751507  0.35690155  0.27364267    -0.25200
C1034       C  0.69300549  0.35460643  0.30463497     0.27500
H1035       H  0.65115879  0.37995078  0.30868580     0.13200
N1036       N  0.65638415  0.38682079  0.24873912    -0.82500
H1037       H  0.71065961  0.35064859  0.26392400     0.18100
N1038       N  0.70473163  0.34293358  0.32330027    -0.81100
H1039       H  0.64527138  0.39285110  0.26164227     0.33700
H1040       H  0.64278539  0.37165346  0.23489014     0.38200
H1041       H  0.71573953  0.33680875  0.31037543     0.33700
H1042       H  0.71835609  0.35783740  0.33739482     0.30400
H1043       H  0.72220546  0.41795988  0.37563060     0.33700
H1044       H  0.72383570  0.40170758  0.34560593     0.30400
H1045       H  0.61240713  0.31226976  0.41627632     0.38200
H1046       H  0.61235912  0.29563237  0.38576045     0.33700
C1047       C  0.77455742  0.09884498  0.17402569    -0.20000
C1048       C  0.78869562  0.08801407  0.18843214     0.36200
C1049       C  0.77872191  0.06035401  0.18757567    -0.26000
C1050       C  0.75498760  0.04338492  0.17268002     0.02600
C1051       C  0.74015998  0.05393095  0.15942127     0.27400
C1052       C  0.74998549  0.08168459  0.16053674    -0.25100
N1053       N  0.81317931  0.10515894  0.20376701    -0.82500
H1054       H  0.78969171  0.05194583  0.19818571     0.13200
C1055       C  0.74664926  0.01475162  0.17046566     0.02600
N1056       N  0.71572977  0.03656116  0.14415742    -0.81100
H1057       H  0.73910855  0.09007146  0.14967631     0.18100
C1058       C  0.72303579  0.99545576  0.18479048    -0.25900
C1059       C  0.71427001  0.46743432  0.18599539     0.36100
C1060       C  0.73094645  0.45986342  0.17099354    -0.20000
C1061       C  0.75452481  0.47946035  0.15681977    -0.25200
C1062       C  0.76297312  0.00688696  0.15537994     0.27500
H1063       H  0.71081384  0.00177412  0.19663228     0.13200
N1064       N  0.69047515  0.44768569  0.20152200    -0.82500
H1065       H  0.76717546  0.47356403  0.14517834     0.18100
N1066       N  0.78701827  0.02659296  0.14021428    -0.81100
H1067       H  0.68047022  0.45660165  0.21125719     0.33700
H1068       H  0.69641478  0.43985468  0.21910905     0.38200
H1069       H  0.79682495  0.01753795  0.13032896     0.33700
H1070       H  0.78142579  0.03489583  0.12279913     0.30400
H1071       H  0.70729479  0.04750575  0.13561916     0.33700
H1072       H  0.72056169  0.02869599  0.12576354     0.30400
H1073       H  0.80852465  0.11359867  0.22174628     0.38200
H1074       H  0.82115283  0.09400967  0.21291152     0.33700
C1075       C  0.78262714  0.23473034  0.17121670    -0.20000
C1076       C  0.79475959  0.25684082  0.19053297     0.36200
C1077       C  0.78620415  0.27564693  0.19023937    -0.26000
C1078       C  0.76596709  0.27268945  0.17097810     0.02600
C1079       C  0.75388087  0.25069845  0.15164985     0.27400
C1080       C  0.76216332  0.23168896  0.15218766    -0.25100
N1081       N  0.81542992  0.25990723  0.21056243    -0.82500
H1082       H  0.79524199  0.29262976  0.20507258     0.13200
C1083       C  0.75728427  0.29261499  0.17153680     0.02600
N1084       N  0.73366682  0.24812077  0.13121330    -0.81100
H1085       H  0.75308059  0.21479220  0.13724103     0.18100
C1086       C  0.76931875  0.31467660  0.15180340    -0.25900
C1087       C  0.76076290  0.33349690  0.15095870     0.36100
C1088       C  0.74007190  0.33012449  0.17049786    -0.20000
C1089       C  0.72814737  0.30808128  0.19031383    -0.25200
C1090       C  0.73664917  0.28924893  0.19109059     0.27500
H1091       H  0.78504780  0.31688577  0.13672193     0.13200
N1092       N  0.77233837  0.35546827  0.12976667    -0.82500
H1093       H  0.71219302  0.30560968  0.20520225     0.18100
N1094       N  0.72457001  0.26681271  0.21166247    -0.81100
H1095       H  0.78725761  0.35498270  0.11699567     0.33700
H1096       H  0.75732747  0.35279568  0.11489529     0.38200
H1097       H  0.70995793  0.26752186  0.22480619     0.33700
H1098       H  0.71467667  0.24931941  0.19914714     0.30400
H1099       H  0.72720477  0.23109168  0.11810598     0.33700
H1100       H  0.71709757  0.24508654  0.14382888     0.30400
H1101       H  0.80690163  0.24377653  0.22578922     0.38200
H1102       H  0.82230550  0.27731403  0.22308995     0.33700
C1103       C  0.83380451  0.19231559  0.07996931    -0.20000
C1104       C  0.86036690  0.20176782  0.06996732     0.36200
C1105       C  0.86596368  0.20378219  0.03895026    -0.26000
C1106       C  0.84551797  0.19608984  0.01796770     0.02600
C1107       C  0.81915192  0.18670591  0.02786466     0.27400
C1108       C  0.81361485  0.18512617  0.05861632    -0.25100
N1109       N  0.88140543  0.20877373  0.09110018    -0.82500
H1110       H  0.88616211  0.21062907  0.03107934     0.13200
C1111       C  0.85121574  0.19572474  0.98568932     0.02600
N1112       N  0.79796577  0.17812205  0.00655631    -0.81100
H1113       H  0.79317965  0.17781764  0.06589579     0.18100
C1114       C  0.84615598  0.17147717  0.97327917    -0.25900
C1115       C  0.84969316  0.16950641  0.94251388     0.36100
C1116       C  0.85879810  0.19243721  0.92377173    -0.20000
C1117       C  0.86333227  0.21662197  0.93612633    -0.25200
C1118       C  0.85962864  0.21848471  0.96703108     0.27500
H1119       H  0.83908103  0.15392592  0.98768793     0.13200
N1120       N  0.84367701  0.14418075  0.93015012    -0.82500
H1121       H  0.87027626  0.23417351  0.92176866     0.18100
N1122       N  0.86454923  0.24335513  0.97960460    -0.81100
H1123       H  0.83729148  0.12939867  0.94692514     0.33700
H1124       H  0.82758674  0.13819337  0.91565989     0.38200
H1125       H  0.87089012  0.25823420  0.96294550     0.33700
H1126       H  0.84635915  0.24044036  0.98794896     0.30400
H1127       H  0.77957177  0.17121487  0.01745834     0.33700
H1128       H  0.80155224  0.19490597  0.99379853     0.30400
H1129       H  0.87746972  0.19114611  0.10230965     0.38200
H1130       H  0.89976347  0.21593893  0.08000595     0.33700
C1131       C  0.85186136  0.21317001  0.59068219    -0.20000
C1132       C  0.85850327  0.23394860  0.61150249     0.36200
C1133       C  0.85807833  0.22848467  0.64220026    -0.26000
C1134       C  0.85049939  0.20272998  0.65271370     0.02600
C1135       C  0.84203935  0.18154223  0.63238296     0.27400
C1136       C  0.84295754  0.18700769  0.60147785    -0.25100
N1137       N  0.86604476  0.26063600  0.60154700    -0.82500
H1138       H  0.86417789  0.24453572  0.65810434     0.13200
C1139       C  0.85364316  0.19912480  0.68492224     0.02600
N1140       N  0.83250870  0.15465146  0.64319427    -0.81100
H1141       H  0.83732785  0.17090338  0.58578152     0.18100
C1142       C  0.83343210  0.19508877  0.70535939    -0.25900
C1143       C  0.83704299  0.19412648  0.73641532     0.36100
C1144       C  0.86133718  0.19710156  0.74697548    -0.20000
C1145       C  0.88142723  0.20108144  0.72629480    -0.25200
C1146       C  0.87793198  0.20234218  0.69544191     0.27500
H1147       H  0.81496749  0.19303420  0.69702527     0.13200
N1148       N  0.81589465  0.18932740  0.75702039    -0.82500
H1149       H  0.90010350  0.20340781  0.73428808     0.18100
N1150       N  0.89923593  0.20766761  0.67476155    -0.81100
H1151       H  0.79892090  0.18616468  0.74544733     0.33700
H1152       H  0.82228545  0.20682798  0.76920955     0.38200
H1153       H  0.91606880  0.21027973  0.68619455     0.33700
H1154       H  0.89289015  0.19073621  0.66154881     0.30400
H1155       H  0.82659296  0.14132860  0.62535662     0.33700
H1156       H  0.84841348  0.15412369  0.65336392     0.30400
H1157       H  0.84922553  0.25970446  0.59183013     0.38200
H1158       H  0.87102728  0.27355406  0.61967176     0.33700
C1159       C  0.94485391  0.25448205  0.50810755    -0.20000
C1160       C  0.95658188  0.24390818  0.48893973     0.36200
C1161       C  0.98379182  0.25221465  0.49192203    -0.26000
C1162       C  0.49940984  0.27083631  0.51363680     0.02600
C1163       C  0.98755716  0.28105484  0.53312944     0.27400
C1164       C  0.96039016  0.27293262  0.52998132    -0.25100
N1165       N  0.94102540  0.22543214  0.46596435    -0.82500
H1166       H  0.99307275  0.24471122  0.47673339     0.13200
C1167       C  0.52851192  0.28075576  0.51437912     0.02600
N1168       N  0.00321490  0.29965828  0.55594877    -0.81100
H1169       H  0.95121344  0.28080496  0.54481131     0.18100
C1170       C  0.54640629  0.30819844  0.50985945    -0.25900
C1171       C  0.57413397  0.31856926  0.50928192     0.36100
C1172       C  0.58421770  0.30085327  0.51240691    -0.20000
C1173       C  0.56619333  0.27334700  0.51723818    -0.25200
C1174       C  0.53844479  0.26316155  0.51855809     0.27500
H1175       H  0.53862104  0.32159777  0.50655675     0.13200
N1176       N  0.59188891  0.34693928  0.50503866    -0.82500
H1177       H  0.57373880  0.25969096  0.51988707     0.18100
N1178       N  0.52029528  0.23506459  0.52409366    -0.81100
H1179       H  0.58111215  0.35675623  0.50154415     0.33700
H1180       H  0.60217320  0.35435889  0.52504063     0.38200
H1181       H  0.53079107  0.22483338  0.52659246     0.33700
H1182       H  0.51058166  0.23319069  0.54452936     0.30400
H1183       H  0.99153572  0.30528826  0.56836421     0.33700
H1184       H  0.50924952  0.28965611  0.57076560     0.30400
H1185       H  0.93535050  0.23560347  0.45094944     0.38200
H1186       H  0.95266994  0.21959793  0.45377617     0.33700
C1187       C  0.71546804  0.29920126  0.48660458    -0.20000
C1188       C  0.70884158  0.27575633  0.47060495     0.36200
C1189       C  0.72742009  0.26686490  0.46895861    -0.26000
C1190       C  0.75229162  0.28095796  0.48309633     0.02600
C1191       C  0.75891773  0.30458416  0.49872212     0.27400
C1192       C  0.74061394  0.31365341  0.49988131    -0.25100
N1193       N  0.68351152  0.26128933  0.45592631    -0.82500
H1194       H  0.72251294  0.24886913  0.45674771     0.13200
C1195       C  0.77113113  0.27062513  0.48242618     0.02600
N1196       N  0.78395706  0.31888372  0.51404051    -0.81100
H1197       H  0.74563446  0.33162507  0.51222605     0.18100
C1198       C  0.79702810  0.28703719  0.47073444    -0.25900
C1199       C  0.81667220  0.27968366  0.47328835     0.36100
C1200       C  0.81025373  0.25534677  0.48804361    -0.20000
C1201       C  0.78377767  0.23813486  0.49794560    -0.25200
C1202       C  0.76416068  0.24553127  0.49533660     0.27500
H1203       H  0.80208057  0.30601772  0.46016774     0.13200
N1204       N  0.84283537  0.29662274  0.46041887    -0.82500
H1205       H  0.77852114  0.21914024  0.50860225     0.18100
N1206       N  0.73741480  0.22798264  0.50641463    -0.81100
H1207       H  0.84332837  0.31229332  0.44794616     0.33700
H1208       H  0.85606387  0.30565568  0.47800601     0.38200
H1209       H  0.73550393  0.21016786  0.51495868     0.33700
H1210       H  0.73407442  0.23746227  0.52432071     0.30400
H1211       H  0.78580155  0.33591693  0.52433414     0.33700
H1212       H  0.78378931  0.30634834  0.53117104     0.30400
H1213       H  0.68313020  0.27385611  0.43916291     0.38200
H1214       H  0.68178390  0.24449258  0.44520240     0.33700
C1215       C  0.83304106  0.19074592  0.25627572    -0.20000
C1216       C  0.85901713  0.19784590  0.26580561     0.36200
C1217       C  0.86472186  0.20068437  0.29664238    -0.26000
C1218       C  0.84492010  0.19624403  0.31788833     0.02600
C1219       C  0.81907181  0.18904839  0.30844246     0.27400
C1220       C  0.81340820  0.18635731  0.27785056    -0.25100
N1221       N  0.87944865  0.20220298  0.24435172    -0.82500
H1222       H  0.88468417  0.20662474  0.30416176     0.13200
C1223       C  0.85177451  0.20186049  0.34980962     0.02600
N1224       N  0.79889623  0.18534185  0.32999474    -0.81100
H1225       H  0.79347896  0.18105766  0.27085152     0.18100
C1226       C  0.85950778  0.22753235  0.35997074    -0.25900
C1227       C  0.86275607  0.23333439  0.39054254     0.36100
C1228       C  0.85871100  0.21300430  0.41152844    -0.20000
C1229       C  0.85135910  0.18730053  0.40119351    -0.25200
C1230       C  0.84778936  0.18150595  0.37043174     0.27500
H1231       H  0.86201237  0.24287017  0.34394886     0.13200
N1232       N  0.86924915  0.25958967  0.40030363    -0.82500
H1233       H  0.84829566  0.17171500  0.41712481     0.18100
N1234       N  0.84019713  0.15515212  0.36004232    -0.81100
H1235       H  0.87207868  0.27222384  0.38202178     0.33700
H1236       H  0.85271224  0.25751502  0.41225468     0.38200
H1237       H  0.83837789  0.14258950  0.37801853     0.33700
H1238       H  0.82122579  0.14693783  0.35066739     0.30400
H1239       H  0.78111322  0.18080615  0.31935207     0.33700
H1240       H  0.79460624  0.16864144  0.34334395     0.30400
H1241       H  0.87365254  0.18382347  0.23429712     0.38200
H1242       H  0.89750000  0.20787714  0.25506921     0.33700
In1243     In  0.86458950  0.73097967  0.50070907     1.36900
C1244       C  0.86126043  0.71834158  0.44396644     0.77400
O1245       O  0.82279152  0.72260122  0.49740358    -0.61000
O1246       O  0.85472312  0.76324558  0.49293150    -0.51900
C1247       C  0.85362239  0.71796346  0.55771440     0.70100
O1248       O  0.84728015  0.70008560  0.53791214    -0.46800
C1249       C  0.91533520  0.74581409  0.50611317     0.74800
O1250       O  0.85002759  0.70022547  0.46423538    -0.58600
O1251       O  0.90719197  0.76247797  0.50776964    -0.48700
O1252       O  0.87478823  0.74201564  0.45348436    -0.55100
C1253       C  0.82966284  0.74693068  0.49272479     0.85000
O1254       O  0.86503064  0.74179794  0.54771716    -0.57000
O1255       O  0.89738440  0.72170104  0.50182020    -0.60300
In1256     In  0.80717554  0.67969301  0.16849910     1.36900
C1257       C  0.82430470  0.68693230  0.11196181     0.77400
O1258       O  0.80961400  0.64288823  0.17137222    -0.61000
O1259       O  0.77076784  0.63862912  0.17105703    -0.51900
C1260       C  0.82435966  0.68730377  0.22422597     0.70100
O1261       O  0.84050098  0.69415977  0.20212917    -0.46800
C1262       C  0.79079880  0.71456336  0.16924847     0.74800
O1263       O  0.84054554  0.69527189  0.13353835    -0.58600
O1264       O  0.77480576  0.68980025  0.16547011    -0.48700
O1265       O  0.80004013  0.67528068  0.11988346    -0.55100
C1266       C  0.78459818  0.62730903  0.17267736     0.85000
O1267       O  0.80007519  0.67696924  0.21723717    -0.57000
O1268       O  0.81504591  0.72125892  0.17215014    -0.60300
In1269     In  0.66365816  0.82799667  0.49947797     1.36900
C1270       C  0.68067345  0.84636628  0.55376793     0.77400
O1271       O  0.62956434  0.83474766  0.50505711    -0.61000
O1272       O  0.62170596  0.79460804  0.50869927    -0.51900
C1273       C  0.66476656  0.84303068  0.44317192     0.70100
O1274       O  0.67746164  0.86009593  0.46329228    -0.46800
C1275       C  0.69589814  0.80906417  0.48998673     0.74800
O1276       O  0.68351726  0.86207886  0.53218024    -0.58600
O1277       O  0.67079652  0.79368195  0.49250654    -0.48700
O1278       O  0.66893476  0.82180891  0.54734513    -0.55100
C1279       C  0.61232688  0.81026426  0.50891560     0.85000
O1280       O  0.65203577  0.81901160  0.45237531    -0.57000
O1281       O  0.70403285  0.83380583  0.49215011    -0.60300
In1282     In  0.71081749  0.88132719  0.16638301     1.36900
C1283       C  0.72942147  0.84854014  0.16852759     0.77400
O1284       O  0.71794982  0.88246706  0.21473463    -0.61000
O1285       O  0.67735961  0.86594955  0.20049195    -0.51900
C1286       C  0.72459740  0.93198653  0.16839857     0.70100
O1287       O  0.74189343  0.92467475  0.16731337    -0.46800
C1288       C  0.70130288  0.87558046  0.10855023     0.74800
O1289       O  0.74483094  0.87380950  0.16785165    -0.58600
O1290       O  0.68231834  0.86391186  0.12763788    -0.48700
O1291       O  0.70459459  0.84030203  0.16841506    -0.55100
C1292       C  0.69356084  0.87208046  0.22209112     0.85000
O1293       O  0.70046712  0.91324446  0.16809570    -0.57000
O1294       O  0.72425482  0.88950162  0.11952102    -0.60300
In1295     In  0.67699254  0.88321099  0.82741958     1.36900
C1296       C  0.69065661  0.87634963  0.77313626     0.77400
O1297       O  0.64306244  0.84099267  0.82964768    -0.61000
O1298       O  0.63436201  0.87220159  0.82149146    -0.51900
C1299       C  0.68312009  0.87623372  0.88480241     0.70100
O1300       O  0.69280364  0.86823481  0.86453821    -0.46800
C1301       C  0.70759053  0.93606536  0.82799453     0.74800
O1302       O  0.69676175  0.86760110  0.79611790    -0.58600
O1303       O  0.68229147  0.92455012  0.82885175    -0.48700
O1304       O  0.67760293  0.88799712  0.77823259    -0.55100
C1305       C  0.62541302  0.84734461  0.82548153     0.85000
O1306       O  0.67072784  0.88747921  0.87517950    -0.57000
O1307       O  0.71684610  0.92040521  0.82679768    -0.60300
In1308     In  0.87362217  0.68627960  0.83437110     1.36900
C1309       C  0.86455853  0.69455586  0.77851705     0.77400
O1310       O  0.90935179  0.72725416  0.83546134    -0.61000
O1311       O  0.91552026  0.69392345  0.83311781    -0.51900
C1312       C  0.86337643  0.69082255  0.89112677     0.70100
O1313       O  0.85982379  0.70400343  0.87054931    -0.46800
C1314       C  0.83971890  0.63442674  0.83234083     0.74800
O1315       O  0.85425426  0.70018965  0.80039707    -0.58600
O1316       O  0.86477529  0.64397133  0.83382960    -0.48700
O1317       O  0.87973878  0.68570057  0.78568646    -0.55100
C1318       C  0.92595698  0.71917856  0.83407689     0.85000
O1319       O  0.87267478  0.67643355  0.88236054    -0.57000
O1320       O  0.83236969  0.65164129  0.83164354    -0.60300
C1321       C  0.82020449  0.60538675  0.83140820    -0.20000
C1322       C  0.82607717  0.58623690  0.84325906     0.36200
C1323       C  0.80687023  0.55886244  0.84156393    -0.26000
C1324       C  0.78198757  0.55022239  0.82825451     0.02600
C1325       C  0.77602401  0.56935783  0.81659777     0.27400
C1326       C  0.79510625  0.59677076  0.81858788    -0.25100
N1327       N  0.85126233  0.59459415  0.85740741    -0.82500
H1328       H  0.81120624  0.54410396  0.85090431     0.13200
C1329       C  0.76255139  0.52100350  0.82679180     0.02600
N1330       N  0.75084582  0.56086074  0.80237412    -0.81100
H1331       H  0.79057126  0.61146593  0.80947664     0.18100
C1332       C  0.73732572  0.51033819  0.84066807    -0.25900
C1333       C  0.71839819  0.98276141  0.84256158     0.36100
C1334       C  0.72540735  0.96554795  0.82796210    -0.20000
C1335       C  0.75037908  0.97649142  0.81346866    -0.25200
C1336       C  0.76964157  0.50361408  0.81291687     0.27500
H1337       H  0.73211227  0.52373992  0.85168187     0.13200
N1338       N  0.69335227  0.97191150  0.85850424    -0.82500
H1339       H  0.75573875  0.96332955  0.80214159     0.18100
N1340       N  0.79520227  0.51424351  0.79813768    -0.81100
H1341       H  0.69128703  0.98729554  0.86789920     0.33700
H1342       H  0.69377784  0.96029950  0.87635914     0.38200
H1343       H  0.79741587  0.49878762  0.78925061     0.33700
H1344       H  0.79560133  0.52604423  0.78003899     0.30400
H1345       H  0.74958116  0.57745352  0.79507831     0.33700
H1346       H  0.75022032  0.55031043  0.78324528     0.30400
H1347       H  0.85190824  0.60503181  0.87667003     0.38200
H1348       H  0.85249421  0.57796859  0.86454173     0.33700
C1349       C  0.95532091  0.73778773  0.83302994    -0.20000
C1350       C  0.96683033  0.76541985  0.83914385     0.36200
C1351       C  0.99469022  0.78225384  0.83696309    -0.26000
C1352       C  0.51135248  0.77236529  0.82816839     0.02600
C1353       C  0.99990758  0.74484238  0.82189639     0.27400
C1354       C  0.97208871  0.72780690  0.82482009    -0.25100
N1355       N  0.95033552  0.77639219  0.84757760    -0.82500
H1356       H  0.00352876  0.80327723  0.84235152     0.13200
C1357       C  0.54074101  0.79110700  0.82612356     0.02600
N1358       N  0.51650935  0.73440083  0.81204204    -0.81100
H1359       H  0.96340380  0.70671800  0.81986610     0.18100
C1360       C  0.55798699  0.78500752  0.84178245    -0.25900
C1361       C  0.58576629  0.80276491  0.84154171     0.36100
C1362       C  0.59648954  0.82736299  0.82553140    -0.20000
C1363       C  0.57926452  0.83338108  0.80978090    -0.25200
C1364       C  0.55156926  0.81541140  0.80959239     0.27500
H1365       H  0.54965650  0.76656854  0.85485553     0.13200
N1366       N  0.60293474  0.79617517  0.85812380    -0.82500
H1367       H  0.58749265  0.85212119  0.79729669     0.18100
N1368       N  0.53439533  0.82170352  0.79259668    -0.81100
H1369       H  0.59186433  0.77715940  0.86819776     0.33700
H1370       H  0.61117939  0.80986202  0.87549116     0.38200
H1371       H  0.54548588  0.84038973  0.78185237     0.33700
H1372       H  0.52583569  0.80746549  0.77579307     0.30400
H1373       H  0.00500780  0.71377332  0.80843242     0.33700
H1374       H  0.52490895  0.74340421  0.79134441     0.30400
H1375       H  0.94193673  0.76831858  0.86857687     0.38200
H1376       H  0.96189896  0.79715733  0.85018589     0.33700
C1377       C  0.68574269  0.87337804  0.91746452    -0.20000
C1378       C  0.69278018  0.85524014  0.93005291     0.36200
C1379       C  0.69380013  0.85323553  0.96147080    -0.26000
C1380       C  0.68829559  0.86922993  0.98026669     0.02600
C1381       C  0.68110420  0.88709924  0.96771272     0.27400
C1382       C  0.67995031  0.88901015  0.93659669    -0.25100
N1383       N  0.69850487  0.83874302  0.91113659    -0.82500
H1384       H  0.69951651  0.83967739  0.97133675     0.13200
C1385       C  0.69209783  0.86911815  0.01299896     0.02600
N1386       N  0.67518636  0.90341588  0.98676657    -0.81100
H1387       H  0.67453350  0.90297775  0.92725263     0.18100
C1388       C  0.71286629  0.89230919  0.02562991    -0.25900
C1389       C  0.71584313  0.89490444  0.05668499     0.36100
C1390       C  0.69770690  0.87361622  0.07571121    -0.20000
C1391       C  0.67706819  0.85013514  0.06305184    -0.25200
C1392       C  0.67416058  0.84763090  0.03173768     0.27500
H1393       H  0.72645631  0.90879381  0.01106177     0.13200
N1394       N  0.73693243  0.91937384  0.06894382    -0.82500
H1395       H  0.66339635  0.83368179  0.07757710     0.18100
N1396       N  0.65305215  0.82355936  0.01891259    -0.81100
H1397       H  0.74865760  0.93281590  0.05190540     0.33700
H1398       H  0.72800821  0.92850438  0.08056859     0.38200
H1399       H  0.64173426  0.80959268  0.03573759     0.33700
H1400       H  0.64019597  0.82853996  0.00804192     0.30400
H1401       H  0.67050555  0.91575628  0.97406134     0.33700
H1402       H  0.65804000  0.89054596  0.99931429     0.30400
H1403       H  0.71642067  0.85138169  0.89970001     0.38200
H1404       H  0.70198648  0.82563321  0.92402972     0.33700
C1405       C  0.69762792  0.87336770  0.74222379    -0.20000
C1406       C  0.71249916  0.89621749  0.72379504     0.36200
C1407       C  0.71371172  0.89318395  0.69274598    -0.26000
C1408       C  0.69985205  0.86775075  0.67972511     0.02600
C1409       C  0.68613198  0.84474708  0.69853542     0.27400
C1410       C  0.68549869  0.84782666  0.72969103    -0.25100
N1411       N  0.72560194  0.92246498  0.73669138    -0.82500
H1412       H  0.72474996  0.91078348  0.67850329     0.13200
C1413       C  0.69840756  0.86548661  0.64644626     0.02600
N1414       N  0.67175739  0.81845627  0.68583809    -0.81100
H1415       H  0.67388115  0.83037225  0.74398356     0.18100
C1416       C  0.70555341  0.84836510  0.63232815    -0.25900
C1417       C  0.70130447  0.84309709  0.60160809     0.36100
C1418       C  0.68981960  0.85532070  0.58455125    -0.20000
C1419       C  0.68457310  0.87402127  0.59801923    -0.25200
C1420       C  0.68847422  0.87904689  0.62890394     0.27500
H1421       H  0.71388383  0.83856118  0.64552273     0.13200
N1422       N  0.70831090  0.82511001  0.58765367    -0.82500
H1423       H  0.67589149  0.88347972  0.58481266     0.18100
N1424       N  0.68132774  0.89698471  0.64269896    -0.81100
H1425       H  0.71648730  0.81774778  0.60323902     0.33700
H1426       H  0.72334872  0.83621045  0.57174815     0.38200
H1427       H  0.67447646  0.90537958  0.62671874     0.33700
H1428       H  0.66530804  0.88563427  0.65738766     0.30400
H1429       H  0.66282534  0.80375234  0.70266969     0.33700
H1430       H  0.65621334  0.81751696  0.67316156     0.30400
H1431       H  0.74026672  0.92356053  0.75114342     0.38200
H1432       H  0.73556485  0.93721190  0.72016420     0.33700
C1433       C  0.66517166  0.84996079  0.41103410    -0.20000
C1434       C  0.64635520  0.83108137  0.39100617     0.36200
C1435       C  0.64974088  0.83649057  0.36012673    -0.26000
C1436       C  0.67110960  0.86046217  0.34885039     0.02600
C1437       C  0.68877058  0.88018897  0.36871480     0.27400
C1438       C  0.68560692  0.87475126  0.39972398    -0.25100
N1439       N  0.62413703  0.80624947  0.40197732    -0.82500
H1440       H  0.63612014  0.82159235  0.34464655     0.13200
C1441       C  0.67627490  0.86317045  0.31622257     0.02600
N1442       N  0.70996336  0.90546328  0.35728573    -0.81100
H1443       H  0.69978423  0.88945248  0.41495872     0.18100
C1444       C  0.66370900  0.87314891  0.29769556    -0.25900
C1445       C  0.66806519  0.87529292  0.26646845     0.36100
C1446       C  0.68542498  0.86742283  0.25391467    -0.20000
C1447       C  0.69764080  0.85716296  0.27255555    -0.25200
C1448       C  0.69302740  0.85467808  0.30353784     0.27500
H1449       H  0.65063953  0.87936800  0.30766169     0.13200
N1450       N  0.65602161  0.88656854  0.24776331    -0.82500
H1451       H  0.71095804  0.85113218  0.26283056     0.18100
N1452       N  0.70494480  0.84318098  0.32216954    -0.81100
H1453       H  0.64476658  0.89240382  0.26069936     0.33700
H1454       H  0.64252994  0.87139519  0.23384429     0.38200
H1455       H  0.71618215  0.83733590  0.30923470     0.33700
H1456       H  0.71838635  0.85810853  0.33636770     0.30400
H1457       H  0.72094378  0.91789193  0.37484980     0.33700
H1458       H  0.72316870  0.90181866  0.34497991     0.30400
H1459       H  0.61185754  0.81095997  0.41463387     0.38200
H1460       H  0.61254389  0.79449896  0.38430046     0.33700
C1461       C  0.77279432  0.59808657  0.17560366    -0.20000
C1462       C  0.78669031  0.58726241  0.19056004     0.36200
C1463       C  0.77670822  0.55959983  0.18986728    -0.26000
C1464       C  0.75323408  0.54264266  0.17454576     0.02600
C1465       C  0.73859646  0.55317029  0.16078410     0.27400
C1466       C  0.74839935  0.58092283  0.16178044    -0.25100
N1467       N  0.81099834  0.60443337  0.20617523    -0.82500
H1468       H  0.78753815  0.55119638  0.20081941     0.13200
C1469       C  0.74514125  0.51409809  0.17215566     0.02600
N1470       N  0.71443886  0.53579654  0.14507261    -0.81100
H1471       H  0.73771739  0.58931296  0.15048144     0.18100
C1472       C  0.72151597  0.49457937  0.18625191    -0.25900
C1473       C  0.71553090  0.96823792  0.18471131     0.36100
C1474       C  0.73194192  0.96034876  0.16968250    -0.20000
C1475       C  0.75553032  0.97971971  0.15531391    -0.25200
C1476       C  0.76172196  0.50655069  0.15709124     0.27500
H1477       H  0.70909320  0.50066660  0.19806316     0.13200
N1478       N  0.69172447  0.94872905  0.20041889    -0.82500
H1479       H  0.76797553  0.97358104  0.14364598     0.18100
N1480       N  0.78579446  0.52650801  0.14218530    -0.81100
H1481       H  0.68192681  0.95786420  0.21014815     0.33700
H1482       H  0.69761767  0.94086792  0.21801275     0.38200
H1483       H  0.79581177  0.51767254  0.13229226     0.33700
H1484       H  0.78021460  0.53484274  0.12479331     0.30400
H1485       H  0.70612718  0.54673250  0.13617827     0.33700
H1486       H  0.71959119  0.52796917  0.12689981     0.30400
H1487       H  0.80616378  0.61298564  0.22388733     0.38200
H1488       H  0.81881742  0.59328566  0.21570666     0.33700
C1489       C  0.78193772  0.73431050  0.17013468    -0.20000
C1490       C  0.79420571  0.75659069  0.18920395     0.36200
C1491       C  0.78560992  0.77536214  0.18882906    -0.26000
C1492       C  0.76520228  0.77220851  0.16972908     0.02600
C1493       C  0.75303446  0.75009402  0.15057898     0.27400
C1494       C  0.76135190  0.73111222  0.15120743    -0.25100
N1495       N  0.81503504  0.75985164  0.20909508    -0.82500
H1496       H  0.79473739  0.79246376  0.20349147     0.13200
C1497       C  0.75649679  0.79211407  0.17022019     0.02600
N1498       N  0.73270650  0.74736415  0.13022660    -0.81100
H1499       H  0.75217262  0.71409086  0.13643851     0.18100
C1500       C  0.76853811  0.81414129  0.15044844    -0.25900
C1501       C  0.76006455  0.83302172  0.14962219     0.36100
C1502       C  0.73947353  0.82976966  0.16924915    -0.20000
C1503       C  0.72750611  0.80773417  0.18907438    -0.25200
C1504       C  0.73591226  0.78882348  0.18981422     0.27500
H1505       H  0.78422111  0.81628644  0.13533367     0.13200
N1506       N  0.77162916  0.85494458  0.12836837    -0.82500
H1507       H  0.71161705  0.80534659  0.20401680     0.18100
N1508       N  0.72381808  0.76641075  0.21041737    -0.81100
H1509       H  0.78646985  0.85436982  0.11553266     0.33700
H1510       H  0.75658229  0.85229401  0.11356455     0.38200
H1511       H  0.70925535  0.76718299  0.22359176     0.33700
H1512       H  0.71386027  0.74890692  0.19793227     0.30400
H1513       H  0.72619994  0.73025661  0.11723847     0.33700
H1514       H  0.71619096  0.74438342  0.14290501     0.30400
H1515       H  0.80663016  0.74386201  0.22450419     0.38200
H1516       H  0.82200310  0.77737525  0.22143109     0.33700
C1517       C  0.83206106  0.69005741  0.07969473    -0.20000
C1518       C  0.85878917  0.70102923  0.06942141     0.36200
C1519       C  0.86418888  0.70305742  0.03834771    -0.26000
C1520       C  0.84341795  0.69385673  0.01756536     0.02600
C1521       C  0.81687365  0.68282420  0.02773998     0.27400
C1522       C  0.81150035  0.68121141  0.05853604    -0.25100
N1523       N  0.88024613  0.70971052  0.09033877    -0.82500
H1524       H  0.88455134  0.71118072  0.03028061     0.13200
C1525       C  0.84913813  0.69390953  0.98519802     0.02600
N1526       N  0.79540589  0.67282658  0.00665451    -0.81100
H1527       H  0.79092887  0.67269587  0.06599732     0.18100
C1528       C  0.84418831  0.66986016  0.97233023    -0.25900
C1529       C  0.84793294  0.66833708  0.94152154     0.36100
C1530       C  0.85712566  0.69151684  0.92317703    -0.20000
C1531       C  0.86149292  0.71549421  0.93596632    -0.25200
C1532       C  0.85757166  0.71690271  0.96692320     0.27500
H1533       H  0.83709505  0.65212156  0.98643014     0.13200
N1534       N  0.84207045  0.64321303  0.92871178    -0.82500
H1535       H  0.86846498  0.73323071  0.92191295     0.18100
N1536       N  0.86218972  0.74151899  0.97992129    -0.81100
H1537       H  0.83560466  0.62820270  0.94522676     0.33700
H1538       H  0.82607679  0.63739575  0.91411649     0.38200
H1539       H  0.86851500  0.75660277  0.96351254     0.33700
H1540       H  0.84387143  0.73830567  0.98822275     0.30400
H1541       H  0.77694831  0.66489679  0.01773881     0.33700
H1542       H  0.79778960  0.68912365  0.99379859     0.30400
H1543       H  0.87764590  0.69267239  0.10181190     0.38200
H1544       H  0.89863848  0.71787346  0.07905058     0.33700
C1545       C  0.84918500  0.71199454  0.59033350    -0.20000
C1546       C  0.85317117  0.73215705  0.61096444     0.36200
C1547       C  0.85282317  0.72702429  0.64174249    -0.26000
C1548       C  0.84793951  0.70211938  0.65243892     0.02600
C1549       C  0.84191904  0.68130115  0.63221911     0.27400
C1550       C  0.84270619  0.68648454  0.60126959    -0.25100
N1551       N  0.85797952  0.75792284  0.60070486    -0.82500
H1552       H  0.85702951  0.74275259  0.65754707     0.13200
C1553       C  0.85164075  0.69926478  0.68467112     0.02600
N1554       N  0.83508792  0.65508815  0.64318497    -0.81100
H1555       H  0.83910172  0.67080921  0.58566360     0.18100
C1556       C  0.83071489  0.69291854  0.70507201    -0.25900
C1557       C  0.83449717  0.69210599  0.73610650     0.36100
C1558       C  0.85969985  0.69761320  0.74665243    -0.20000
C1559       C  0.88053273  0.70399461  0.72603692    -0.25200
C1560       C  0.87685266  0.70512336  0.69520985     0.27500
H1561       H  0.81149962  0.68880921  0.69672791     0.13200
N1562       N  0.81265531  0.68477048  0.75669610    -0.82500
H1563       H  0.89988330  0.70823128  0.73407558     0.18100
N1564       N  0.89880139  0.71289767  0.67458173    -0.81100
H1565       H  0.79519686  0.68002279  0.74512235     0.33700
H1566       H  0.81727908  0.70166392  0.76931670     0.38200
H1567       H  0.91619714  0.71727421  0.68603881     0.33700
H1568       H  0.89423187  0.69646709  0.66113336     0.30400
H1569       H  0.83076076  0.64192821  0.62539976     0.33700
H1570       H  0.85182902  0.65661732  0.65370680     0.30400
H1571       H  0.84060409  0.75488780  0.59020764     0.38200
H1572       H  0.86103918  0.77051876  0.61874579     0.33700
C1573       C  0.94378044  0.75387481  0.50877045    -0.20000
C1574       C  0.95548291  0.74308994  0.48986329     0.36200
C1575       C  0.98272268  0.75148173  0.49282761    -0.26000
C1576       C  0.49844544  0.77046861  0.51420067     0.02600
C1577       C  0.98663124  0.78097805  0.53335785     0.27400
C1578       C  0.95941350  0.77269475  0.53029127    -0.25100
N1579       N  0.93988748  0.72435316  0.46710820    -0.82500
H1580       H  0.99195520  0.74379019  0.47782732     0.13200
C1581       C  0.52759936  0.78046307  0.51486419     0.02600
N1582       N  0.00238422  0.80007651  0.55573419    -0.81100
H1583       H  0.95028771  0.78079009  0.54487520     0.18100
C1584       C  0.54546358  0.80792373  0.51035896    -0.25900
C1585       C  0.57320525  0.81834582  0.50965105     0.36100
C1586       C  0.58335555  0.80066358  0.51246115    -0.20000
C1587       C  0.56538405  0.77315219  0.51735002    -0.25200
C1588       C  0.53762452  0.76292203  0.51892435     0.27500
H1589       H  0.53764969  0.82130888  0.50716058     0.13200
N1590       N  0.59091356  0.84674942  0.50564110    -0.82500
H1591       H  0.57297767  0.75952251  0.51983208     0.18100
N1592       N  0.51956110  0.73482991  0.52460212    -0.81100
H1593       H  0.58010109  0.85657475  0.50250735     0.33700
H1594       H  0.60131958  0.85401142  0.52560862     0.38200
H1595       H  0.53011340  0.72464754  0.52700210     0.33700
H1596       H  0.50997839  0.73299682  0.54512303     0.30400
H1597       H  0.99073527  0.80590228  0.56790678     0.33700
H1598       H  0.50857443  0.79043709  0.57085855     0.30400
H1599       H  0.93417407  0.73435258  0.45189394     0.38200
H1600       H  0.95151719  0.71839859  0.45508344     0.33700
C1601       C  0.71481834  0.79928280  0.48605890    -0.20000
C1602       C  0.70825346  0.77582734  0.47011130     0.36200
C1603       C  0.72687205  0.76697877  0.46854036    -0.26000
C1604       C  0.75177376  0.78117063  0.48260788     0.02600
C1605       C  0.75840852  0.80490389  0.49801740     0.27400
C1606       C  0.74001390  0.81386453  0.49920929    -0.25100
N1607       N  0.68295547  0.76131825  0.45537732    -0.82500
H1608       H  0.72197841  0.74894583  0.45641554     0.13200
C1609       C  0.77061414  0.77081629  0.48208976     0.02600
N1610       N  0.78356231  0.81944597  0.51306732    -0.81100
H1611       H  0.74503055  0.83188753  0.51144461     0.18100
C1612       C  0.79659344  0.78723240  0.47059675    -0.25900
C1613       C  0.81617435  0.77979430  0.47322354     0.36100
C1614       C  0.80958799  0.75532573  0.48776181    -0.20000
C1615       C  0.78306226  0.73814627  0.49751548    -0.25200
C1616       C  0.76352493  0.74564826  0.49489616     0.27500
H1617       H  0.80175411  0.80627251  0.46011129     0.13200
N1618       N  0.84244288  0.79677660  0.46062709    -0.82500
H1619       H  0.77769797  0.71907886  0.50805795     0.18100
N1620       N  0.73673124  0.72811607  0.50584903    -0.81100
H1621       H  0.84309362  0.81260183  0.44832363     0.33700
H1622       H  0.85555465  0.80559052  0.47836058     0.38200
H1623       H  0.73473490  0.71024514  0.51432539     0.33700
H1624       H  0.73336867  0.73755418  0.52378379     0.30400
H1625       H  0.78541173  0.83654967  0.52318622     0.33700
H1626       H  0.78359841  0.80711017  0.53030705     0.30400
H1627       H  0.68258452  0.77386848  0.43857790     0.38200
H1628       H  0.68127952  0.74453245  0.44468433     0.33700
C1629       C  0.83236497  0.69088363  0.25610337    -0.20000
C1630       C  0.85773418  0.69601929  0.26569983     0.36200
C1631       C  0.86354582  0.69890642  0.29651769    -0.26000
C1632       C  0.84441237  0.69644273  0.31767903     0.02600
C1633       C  0.81918192  0.69127990  0.30814770     0.27400
C1634       C  0.81342738  0.68854131  0.27757296    -0.25100
N1635       N  0.87740356  0.69822286  0.24433392    -0.82500
H1636       H  0.88305995  0.70327468  0.30408499     0.13200
C1637       C  0.85144098  0.70182012  0.34960397     0.02600
N1638       N  0.79975240  0.68958752  0.32959541    -0.81100
H1639       H  0.79398606  0.68476934  0.27048935     0.18100
C1640       C  0.86087273  0.72786329  0.35967196    -0.25900
C1641       C  0.86418125  0.73365310  0.39025297     0.36100
C1642       C  0.85845830  0.71287787  0.41137661    -0.20000
C1643       C  0.84953450  0.68679704  0.40110612    -0.25200
C1644       C  0.84586346  0.68103900  0.37033777     0.27500
H1645       H  0.86460929  0.74356508  0.34355900     0.13200
N1646       N  0.87242488  0.76040954  0.39984151    -0.82500
H1647       H  0.84517673  0.67085164  0.41710473     0.18100
N1648       N  0.83643763  0.65425558  0.36006237    -0.81100
H1649       H  0.87649498  0.77330611  0.38147502     0.33700
H1650       H  0.85625266  0.75965106  0.41130010     0.38200
H1651       H  0.83355226  0.64137166  0.37811152     0.33700
H1652       H  0.81767598  0.64731798  0.35054641     0.30400
H1653       H  0.78240711  0.68636767  0.31889793     0.33700
H1654       H  0.79417751  0.67273250  0.34325897     0.30400
H1655       H  0.87006416  0.67940772  0.23466719     0.38200
H1656       H  0.89509883  0.70255226  0.25507409     0.33700
loop_ 
_geom_bond_atom_site_label_1 
_geom_bond_atom_site_label_2 
_geom_bond_distance 
_geom_bond_site_symmetry_2 
_ccdc_geom_bond_type 
In1           O3   2.223       .  S
In1           O4   2.232       .  S
In1          O12   2.195       .  S
In1           O6   2.253       .  S
In1           O8   2.255       .  S
In1           O9   2.232       .  S
In1          O10   2.189       .  S
In1          O13   2.218       .  S
C2            O8   1.275       .  A
C2           O10   1.264       .  A
C2          C400   1.485       .  S
O3           C11   1.267       .  A
O4           C11   1.270       .  A
C5           O12   1.264       .  A
C5            O6   1.275       .  A
C5          C303   1.488       .  S
C7            O9   1.270       .  A
C7           O13   1.266       .  A
C7          C331   1.473       .  S
C11         C372   1.485       .  S
In14         O16   2.204       .  S
In14         O17   2.242       .  S
In14         O25   2.203       .  S
In14         O19   2.261       .  S
In14         O21   2.271       .  S
In14         O22   2.232       .  S
In14         O23   2.208       .  S
In14         O26   2.213       .  S
C15          O21   1.269       .  A
C15          O23   1.260       .  A
C15         C275   1.489       .  S
O16          C24   1.263       .  A
O17          C24   1.266       .  A
C18          O25   1.262       .  A
C18          O19   1.270       .  A
C18         C387   1.486       .  S
C20          O22   1.266       .  A
C20          O26   1.262       .  A
C20         C247   1.469       .  S
C24         C219   1.471       .  S
In27         O29   2.209       .  S
In27         O30   2.242       .  S
In27         O38   2.199       .  S
In27         O32   2.263       .  S
In27         O34   2.265       .  S
In27         O35   2.241       .  S
In27         O36   2.214       .  S
In27         O39   2.209       .  S
C28          O34   1.270       .  A
C28          O36   1.262       .  A
C28         C176   1.480       .  S
O29          C37   1.262       .  A
O30          C37   1.268       .  A
C31          O38   1.261       .  A
C31          O32   1.271       .  A
C31         C191   1.484       .  S
C33          O35   1.268       .  A
C33          O39   1.264       .  A
C33         C359   1.474       .  S
C37         C344   1.484       .  S
In40         O42   2.198       .  S
In40         O43   2.250       .  S
In40         O51   2.208       .  S
In40         O45   2.226       .  S
In40         O47   2.223       .  S
In40         O48   2.263       .  S
In40         O49   2.209       .  S
In40         O52   2.191       .  S
C41          O47   1.269       .  A
C41          O49   1.266       .  A
C41         C260   1.467       .  S
O42          C50   1.264       .  A
O43          C50   1.273       .  A
C44          O51   1.264       .  A
C44          O45   1.269       .  A
C44         C232   1.471       .  S
C46          O48   1.273       .  A
C46          O52   1.261       .  A
C46         C148   1.481       .  S
C50         C204   1.474       .  S
In53         O55   2.231       .  S
In53         O56   2.235       .  S
In53         O64   2.202       .  S
In53         O58   2.265       .  S
In53         O60   2.265       .  S
In53         O61   2.249       .  S
In53         O62   2.212       .  S
In53         O65   2.223       .  S
C54          O60   1.269       .  A
C54          O62   1.261       .  A
C54         C163   1.473       .  S
O55          C63   1.263       .  A
O56          C63   1.267       .  A
C57          O64   1.261       .  A
C57          O58   1.270       .  A
C57         C135   1.486       .  S
C59          O61   1.267       .  A
C59          O65   1.264       .  A
C59          C92   1.480       .  S
C63         C120   1.478       .  S
In66         O68   2.220       .  S
In66         O69   2.238       .  S
In66         O77   2.208       .  S
In66         O71   2.266       .  S
In66         O73   2.262       .  S
In66         O74   2.228       .  S
In66         O75   2.206       .  S
In66         O78   2.215       .  S
C67          O73   1.271       .  A
C67          O75   1.262       .  A
C67         C316   1.482       .  S
O68          C76   1.264       .  A
O69          C76   1.268       .  A
C70          O77   1.261       .  A
C70          O71   1.271       .  A
C70         C288   1.481       .  S
C72          O74   1.269       .  A
C72          O78   1.264       .  A
C72          C79   1.477       .  S
C76         C107   1.484       .  S
C79          C80   1.411       .  A
C79          C84   1.405       .  A
C80          C81   1.404       .  A
C80          N85   1.438       .  S
C81          C82   1.404       .  A
C81          H86   1.084       .  S
C82          C87   1.484       .  S
C82          C83   1.410       .  A
C83          C84   1.405       .  A
C83          N88   1.438       .  S
C84          H89   1.084       .  S
N85         H105   1.046       .  S
N85         H106   1.045       .  S
C87          C90   1.404       .  A
C87          C94   1.410       .  A
N88         H103   1.047       .  S
N88         H104   1.045       .  S
C90         C505   1.409   1_545  A
C90          H95   1.084       .  S
C91          C92   1.413       .  A
C91         C504   1.408       .  A
C91          N96   1.437       .  S
C92          C93   1.404       .  A
C93         C508   1.403       .  A
C93          H97   1.084       .  S
C94         C507   1.403   1_545  A
C94          N98   1.438       .  S
N96          H99   1.046       .  S
N96         H100   1.046       .  S
N98         H101   1.045   1_545  S
N98         H102   1.046       .  S
C107        C108   1.415       .  A
C107        C112   1.405       .  A
C108        C109   1.404       .  A
C108        N113   1.438       .  S
C109        C938   1.403       .  A
C109        H114   1.084       .  S
C110        C115   1.487       .  S
C110        C937   1.403   1_455  A
C110        C939   1.411       .  A
C111        C112   1.406       .  A
C111        C938   1.411       .  A
C111        N944   1.438       .  S
C112        H117   1.083       .  S
N113        H133   1.045       .  S
N113        H134   1.045       .  S
C115        C118   1.404       .  A
C115        C122   1.412       .  A
N116        C939   1.438       .  S
N116        H132   1.046       .  S
N116        H959   1.045       .  S
C118        C119   1.405       .  A
C118        H123   1.084       .  S
C119        C120   1.414       .  A
C119        N124   1.438       .  S
C120        C121   1.402       .  A
C121        C122   1.403       .  A
C121        H125   1.084       .  S
C122        N126   1.438       .  S
N124        H127   1.047       .  S
N124        H128   1.045       .  S
N126        H129   1.046       .  S
N126        H130   1.045       .  S
H131        N944   1.045       .  S
C135        C136   1.415       .  A
C135        C140   1.406       .  A
C136        C137   1.412       .  A
C136        N141   1.437       .  S
C137        C138   1.404       .  A
C137        H142   1.083       .  S
C138        C143   1.482   1_556  S
C138        C139   1.407       .  A
C139        C140   1.399       .  A
C139        N144   1.439       .  S
C140        H145   1.083       .  S
N141        H161   1.045       .  S
N141        H162   1.046       .  S
C143        C146   1.399       .  A
C143        C150   1.410       .  A
N144        H159   1.045       .  S
N144        H160   1.046       .  S
C146        C147   1.400       .  A
C146        H151   1.084       .  S
C147        C148   1.415       .  A
C147        N152   1.439       .  S
C148        C149   1.405       .  A
C149        C150   1.411       .  A
C149        H153   1.083       .  S
C150        N154   1.437       .  S
N152        H155   1.046       .  S
N152        H156   1.045       .  S
N154        H157   1.046       .  S
N154        H158   1.045       .  S
C163        C164   1.409       .  A
C163        C168   1.399       .  A
C164        C165   1.407       .  A
C164        N169   1.438       .  S
C165        C166   1.405       .  A
C165        H170   1.083       .  S
C166        C171   1.494       .  S
C166        C167   1.417       .  A
C167        C168   1.409       .  A
C167        N172   1.438       .  S
C168        H173   1.084       .  S
N169        H189   1.047       .  S
N169        H190   1.045       .  S
C171        C174   1.403       .  A
C171        C178   1.417       .  A
N172        H187   1.046       .  S
N172        H188   1.045       .  S
C174        C175   1.406       .  A
C174        H179   1.084       .  S
C175        C176   1.412       .  A
C175        N180   1.438       .  S
C176        C177   1.401       .  A
C177        C178   1.410       .  A
C177        H181   1.084       .  S
C178        N182   1.438       .  S
N180        H183   1.045       .  S
N180        H184   1.047       .  S
N182        H185   1.046       .  S
N182        H186   1.045       .  S
C191        C192   1.417       .  A
C191        C196   1.405       .  A
C192        C193   1.403       .  A
C192        N197   1.438       .  S
C193        C194   1.397       .  A
C193        H198   1.084       .  S
C194        C199   1.478       .  S
C194        C195   1.410       .  A
C195        C196   1.409       .  A
C195        N200   1.438       .  S
C196        H201   1.083       .  S
N197        H217   1.046       .  S
N197        H218   1.045       .  S
C199        C202   1.403       .  A
C199        C206   1.408       .  A
N200        H215   1.045       .  S
N200        H216   1.045       .  S
C202        C203   1.410       .  A
C202        H207   1.084       .  S
C203        C204   1.411       .  A
C203        N208   1.437       .  S
C204        C205   1.402       .  A
C205        C206   1.401       .  A
C205        H209   1.084       .  S
C206        N210   1.439       .  S
N208        H211   1.046       .  S
N208        H212   1.045       .  S
N210        H213   1.045       .  S
N210        H214   1.045       .  S
C219        C220   1.411       .  A
C219        C224   1.403       .  A
C220        C221   1.399       .  A
C220        N225   1.438       .  S
C221        C222   1.399       .  A
C221        H226   1.084       .  S
C222        C227   1.475       .  S
C222        C223   1.410       .  A
C223        C224   1.406       .  A
C223        N228   1.438       .  S
C224        H229   1.084       .  S
N225        H245   1.046       .  S
N225        H246   1.045       .  S
C227        C230   1.400   1_545  A
C227        C234   1.410       .  A
N228        H243   1.045       .  S
N228        H244   1.046       .  S
C230        C645   1.404       .  A
C230        H235   1.084   1_565  S
C231        C232   1.414       .  A
C231        C644   1.404       .  A
C231        N236   1.438       .  S
C232        C233   1.401       .  A
C233        C648   1.401       .  A
C233        H237   1.084       .  S
C234        C647   1.402   1_545  A
C234        N238   1.438       .  S
N236        H239   1.046       .  S
N236        H240   1.046       .  S
N238        H241   1.045       .  S
N238        H242   1.046       .  S
C247        C248   1.412       .  A
C247        C252   1.402       .  A
C248        C249   1.403       .  A
C248        N253   1.438       .  S
C249        C250   1.399       .  A
C249        H254   1.084       .  S
C250        C255   1.470       .  S
C250        C251   1.408       .  A
C251        C252   1.403       .  A
C251        N256   1.438       .  S
C252        H257   1.084       .  S
N253        H273   1.046       .  S
N253        H274   1.045       .  S
C255        C258   1.401       .  A
C255        C262   1.407       .  A
N256        H271   1.046       .  S
N256        H272   1.045       .  S
C258        C259   1.404       .  A
C258        H263   1.084       .  S
C259        C260   1.409       .  A
C259        N264   1.438       .  S
C260        C261   1.402       .  A
C261        C262   1.402       .  A
C261        H265   1.084       .  S
C262        N266   1.438       .  S
N264        H267   1.045       .  S
N264        H268   1.047       .  S
N266        H269   1.045       .  S
N266        H270   1.045       .  S
C275        C276   1.416       .  A
C275        C280   1.408       .  A
C276        C277   1.413       .  A
C276        N281   1.437       .  S
C277        C278   1.404       .  A
C277        H282   1.084       .  S
C278        C283   1.481   1_554  S
C278        C279   1.405       .  A
C279        C280   1.402       .  A
C279        N284   1.438       .  S
C280        H285   1.083       .  S
N281        H301   1.046       .  S
N281        H302   1.046       .  S
C283        C286   1.399       .  A
C283        C290   1.410       .  A
N284        H299   1.045       .  S
N284        H300   1.045   1_554  S
C286        C287   1.404       .  A
C286        H291   1.084       .  S
C287        C288   1.415       .  A
C287        N292   1.439       .  S
C288        C289   1.404       .  A
C289        C290   1.411       .  A
C289        H293   1.083       .  S
C290        N294   1.437       .  S
N292        H295   1.046       .  S
N292        H296   1.046       .  S
N294        H297   1.046       .  S
N294        H298   1.045       .  S
C303        C304   1.420       .  A
C303        C308   1.406       .  A
C304        C305   1.403       .  A
C304        N309   1.438       .  S
C305        C306   1.397       .  A
C305        H310   1.084       .  S
C306        C311   1.479       .  S
C306        C307   1.409       .  A
C307        C308   1.409       .  A
C307        N312   1.438       .  S
C308        H313   1.083       .  S
N309        H329   1.046       .  S
N309        H330   1.046       .  S
C311        C314   1.403       .  A
C311        C318   1.407       .  A
N312        H327   1.046       .  S
N312        H328   1.044       .  S
C314        C315   1.410       .  A
C314        H319   1.084       .  S
C315        C316   1.413       .  A
C315        N320   1.437       .  S
C316        C317   1.405       .  A
C317        C318   1.402       .  A
C317        H321   1.084       .  S
C318        N322   1.439       .  S
N320        H323   1.046       .  S
N320        H324   1.044       .  S
N322        H325   1.046       .  S
N322        H326   1.045       .  S
C331        C332   1.411       .  A
C331        C336   1.402       .  A
C332        C333   1.404       .  A
C332        N337   1.438       .  S
C333       C1162   1.402       .  A
C333        H338   1.084       .  S
C334        C339   1.482   1_655  S
C334       C1161   1.402       .  A
C334       C1163   1.411       .  A
C335        C336   1.405       .  A
C335       C1162   1.411       .  A
C335        N340   1.438       .  S
C336        H341   1.084       .  S
N337        H357   1.046       .  S
N337        H358   1.046       .  S
C339        C342   1.400       .  A
C339        C346   1.409       .  A
N340        H355   1.045       .  S
N340       H1184   1.046       .  S
C342        C343   1.402       .  A
C342        H347   1.084       .  S
C343        C344   1.417       .  A
C343        N348   1.438       .  S
C344        C345   1.406       .  A
C345        C346   1.406       .  A
C345        H349   1.083       .  S
C346        N350   1.437       .  S
N348        H351   1.045       .  S
N348        H352   1.046       .  S
N350        H353   1.046       .  S
N350        H354   1.046       .  S
H356       N1168   1.046       .  S
C359        C360   1.411       .  A
C359        C364   1.401       .  A
C360        C361   1.409       .  A
C360        N365   1.437       .  S
C361        C362   1.405       .  A
C361        H366   1.083       .  S
C362        C367   1.485       .  S
C362        C363   1.411       .  A
C363        C364   1.400       .  A
C363        N368   1.438       .  S
C364        H369   1.084       .  S
N365        H385   1.046       .  S
N365        H386   1.045       .  S
C367        C370   1.403       .  A
C367        C374   1.409       .  A
N368        H383   1.046       .  S
N368        H384   1.045       .  S
C370        C371   1.406       .  A
C370        H375   1.084       .  S
C371        C372   1.414       .  A
C371        N376   1.437       .  S
C372        C373   1.407       .  A
C373        C374   1.406       .  A
C373        H377   1.083       .  S
C374        N378   1.438       .  S
N376        H379   1.046       .  S
N376        H380   1.044       .  S
N378        H381   1.046       .  S
N378        H382   1.045       .  S
C387        C388   1.415       .  A
C387        C392   1.407       .  A
C388        C389   1.412       .  A
C388        N393   1.437       .  S
C389        C390   1.403       .  A
C389        H394   1.084       .  S
C390        C395   1.479       .  S
C390        C391   1.405       .  A
C391        C392   1.400       .  A
C391        N396   1.439       .  S
C392        H397   1.083       .  S
N393        H413   1.046       .  S
N393        H414   1.046       .  S
C395        C398   1.397       .  A
C395        C402   1.410       .  A
N396        H411   1.045       .  S
N396        H412   1.046       .  S
C398        C399   1.402       .  A
C398        H403   1.084       .  S
C399        C400   1.418       .  A
C399        N404   1.439       .  S
C400        C401   1.406       .  A
C401        C402   1.410       .  A
C401        H405   1.083       .  S
C402        N406   1.438       .  S
N404        H407   1.046       .  S
N404        H408   1.046       .  S
N406        H409   1.046       .  S
N406        H410   1.045       .  S
In415       O417   2.223       .  S
In415       O418   2.232       .  S
In415       O426   2.195       .  S
In415       O420   2.252       .  S
In415       O422   2.256       .  S
In415       O423   2.233       .  S
In415       O424   2.189       .  S
In415       O427   2.219       .  S
C416        O422   1.275       .  A
C416        O424   1.264       .  A
C416        C814   1.487       .  S
O417        C425   1.267       .  A
O418        C425   1.271       .  A
C419        O426   1.264       .  A
C419        O420   1.274       .  A
C419        C717   1.486       .  S
C421        O423   1.270       .  A
C421        O427   1.266       .  A
C421        C745   1.475       .  S
C425        C786   1.485       .  S
In428       O430   2.203       .  S
In428       O431   2.242       .  S
In428       O439   2.205       .  S
In428       O433   2.262       .  S
In428       O435   2.274       .  S
In428       O436   2.232       .  S
In428       O437   2.208       .  S
In428       O440   2.214       .  S
C429        O435   1.269       .  A
C429        O437   1.260       .  A
C429        C689   1.490       .  S
O430        C438   1.263       .  A
O431        C438   1.266       .  A
C432        O439   1.262       .  A
C432        O433   1.271       .  A
C432        C801   1.485       .  S
C434        O436   1.265       .  A
C434        O440   1.262       .  A
C434        C661   1.469       .  S
C438        C633   1.471       .  S
In441       O443   2.211       .  S
In441       O444   2.244       .  S
In441       O452   2.201       .  S
In441       O446   2.263       .  S
In441       O448   2.264       .  S
In441       O449   2.243       .  S
In441       O450   2.215       .  S
In441       O453   2.210       .  S
C442        O448   1.270       .  A
C442        O450   1.262       .  A
C442        C590   1.480       .  S
O443        C451   1.263       .  A
O444        C451   1.268       .  A
C445        O452   1.261       .  A
C445        O446   1.271       .  A
C445        C605   1.485       .  S
C447        O449   1.268       .  A
C447        O453   1.264       .  A
C447        C773   1.475       .  S
C451        C758   1.485       .  S
In454       O456   2.199       .  S
In454       O457   2.252       .  S
In454       O465   2.209       .  S
In454       O459   2.228       .  S
In454       O461   2.222       .  S
In454       O462   2.265       .  S
In454       O463   2.210       .  S
In454       O466   2.193       .  S
C455        O461   1.269       .  A
C455        O463   1.266       .  A
C455        C674   1.467       .  S
O456        C464   1.264       .  A
O457        C464   1.273       .  A
C458        O465   1.264       .  A
C458        O459   1.269       .  A
C458        C646   1.472       .  S
C460        O462   1.273       .  A
C460        O466   1.261       .  A
C460        C562   1.482       .  S
C464        C618   1.475       .  S
In467       O469   2.230       .  S
In467       O470   2.235       .  S
In467       O478   2.201       .  S
In467       O472   2.265       .  S
In467       O474   2.265       .  S
In467       O475   2.250       .  S
In467       O476   2.212       .  S
In467       O479   2.222       .  S
C468        O474   1.269       .  A
C468        O476   1.261       .  A
C468        C577   1.474       .  S
O469        C477   1.262       .  A
O470        C477   1.266       .  A
C471        O478   1.261       .  A
C471        O472   1.270       .  A
C471        C549   1.485       .  S
C473        O475   1.267       .  A
C473        O479   1.264       .  A
C473        C506   1.480       .  S
C477        C534   1.479       .  S
In480       O482   2.224       .  S
In480       O483   2.237       .  S
In480       O491   2.208       .  S
In480       O485   2.269       .  S
In480       O487   2.262       .  S
In480       O488   2.229       .  S
In480       O489   2.207       .  S
In480       O492   2.216       .  S
C481        O487   1.271       .  A
C481        O489   1.261       .  A
C481        C730   1.480       .  S
O482        C490   1.264       .  A
O483        C490   1.267       .  A
C484        O491   1.261       .  A
C484        O485   1.271       .  A
C484        C702   1.482       .  S
C486        O488   1.268       .  A
C486        O492   1.264       .  A
C486        C493   1.477       .  S
C490        C521   1.484       .  S
C493        C494   1.411       .  A
C493        C498   1.405       .  A
C494        C495   1.404       .  A
C494        N499   1.438       .  S
C495        C496   1.404       .  A
C495        H500   1.084       .  S
C496        C501   1.485       .  S
C496        C497   1.410       .  A
C497        C498   1.405       .  A
C497        N502   1.438       .  S
C498        H503   1.084       .  S
N499        H519   1.046       .  S
N499        H520   1.045       .  S
C501        C504   1.404       .  A
C501        C508   1.410       .  A
N502        H517   1.046       .  S
N502        H518   1.045       .  S
C504        H509   1.084       .  S
C505        C506   1.413       .  A
C505        N510   1.437       .  S
C506        C507   1.403       .  A
C507        H511   1.084       .  S
C508        N512   1.438       .  S
N510        H513   1.046       .  S
N510        H514   1.046       .  S
N512        H515   1.046       .  S
N512        H516   1.045       .  S
C521        C522   1.415       .  A
C521        C526   1.405       .  A
C522        C523   1.404       .  A
C522        N527   1.438       .  S
C523       C1352   1.403       .  A
C523        H528   1.084       .  S
C524        C529   1.488       .  S
C524       C1351   1.403   1_455  A
C524       C1353   1.411   1_455  A
C525       C1352   1.411       .  A
C525        C526   1.406       .  A
C525       N1358   1.438       .  S
C526        H531   1.083       .  S
N527        H547   1.045       .  S
N527        H548   1.045       .  S
C529        C532   1.404       .  A
C529        C536   1.412       .  A
N530       C1353   1.438   1_455  S
N530       H1373   1.045       .  S
N530        H546   1.046       .  S
C532        C533   1.405       .  A
C532        H537   1.084       .  S
C533        C534   1.414       .  A
C533        N538   1.438       .  S
C534        C535   1.402       .  A
C535        C536   1.404       .  A
C535        H539   1.084       .  S
C536        N540   1.438       .  S
N538        H541   1.047       .  S
N538        H542   1.045       .  S
N540        H543   1.046       .  S
N540        H544   1.045       .  S
H545       N1358   1.045       .  S
C549        C550   1.415       .  A
C549        C554   1.406       .  A
C550        C551   1.413       .  A
C550        N555   1.437       .  S
C551        C552   1.404       .  A
C551        H556   1.083       .  S
C552        C557   1.482   1_556  S
C552        C553   1.407       .  A
C553        C554   1.399       .  A
C553        N558   1.439       .  S
C554        H559   1.084       .  S
N555        H575   1.045       .  S
N555        H576   1.046       .  S
C557        C560   1.399       .  A
C557        C564   1.410       .  A
N558        H573   1.045       .  S
N558        H574   1.046       .  S
C560        C561   1.400       .  A
C560        H565   1.084       .  S
C561        C562   1.415       .  A
C561        N566   1.439       .  S
C562        C563   1.405       .  A
C563        C564   1.411       .  A
C563        H567   1.083       .  S
C564        N568   1.437       .  S
N566        H569   1.046       .  S
N566        H570   1.045       .  S
N568        H571   1.046       .  S
N568        H572   1.045       .  S
C577        C578   1.409       .  A
C577        C582   1.399       .  A
C578        C579   1.407       .  A
C578        N583   1.438       .  S
C579        C580   1.405       .  A
C579        H584   1.083       .  S
C580        C585   1.494       .  S
C580        C581   1.417       .  A
C581        C582   1.409       .  A
C581        N586   1.438       .  S
C582        H587   1.084       .  S
N583        H603   1.047       .  S
N583        H604   1.044       .  S
C585        C588   1.403       .  A
C585        C592   1.417       .  A
N586        H601   1.046       .  S
N586        H602   1.045       .  S
C588        C589   1.406       .  A
C588        H593   1.083       .  S
C589        C590   1.411       .  A
C589        N594   1.438       .  S
C590        C591   1.401       .  A
C591        C592   1.410       .  A
C591        H595   1.084       .  S
C592        N596   1.438       .  S
N594        H597   1.045       .  S
N594        H598   1.046       .  S
N596        H599   1.046       .  S
N596        H600   1.045       .  S
C605        C606   1.418       .  A
C605        C610   1.405       .  A
C606        C607   1.403       .  A
C606        N611   1.438       .  S
C607        C608   1.397       .  A
C607        H612   1.084       .  S
C608        C613   1.478       .  S
C608        C609   1.410       .  A
C609        C610   1.409       .  A
C609        N614   1.438       .  S
C610        H615   1.083       .  S
N611        H631   1.046       .  S
N611        H632   1.046       .  S
C613        C616   1.403       .  A
C613        C620   1.408       .  A
N614        H629   1.045       .  S
N614        H630   1.045       .  S
C616        C617   1.410       .  A
C616        H621   1.084       .  S
C617        C618   1.411       .  A
C617        N622   1.437       .  S
C618        C619   1.402       .  A
C619        C620   1.401       .  A
C619        H623   1.084       .  S
C620        N624   1.439       .  S
N622        H625   1.046       .  S
N622        H626   1.045       .  S
N624        H627   1.046       .  S
N624        H628   1.045       .  S
C633        C634   1.411       .  A
C633        C638   1.403       .  A
C634        C635   1.399       .  A
C634        N639   1.438       .  S
C635        C636   1.399       .  A
C635        H640   1.084       .  S
C636        C641   1.474       .  S
C636        C637   1.409       .  A
C637        C638   1.406       .  A
C637        N642   1.438       .  S
C638        H643   1.084       .  S
N639        H659   1.046       .  S
N639        H660   1.045       .  S
C641        C644   1.400       .  A
C641        C648   1.409       .  A
N642        H657   1.045       .  S
N642        H658   1.046       .  S
C644        H649   1.084       .  S
C645        C646   1.414       .  A
C645        N650   1.438       .  S
C646        C647   1.401       .  A
C647        H651   1.084       .  S
C648        N652   1.438       .  S
N650        H653   1.046       .  S
N650        H654   1.046       .  S
N652        H655   1.045       .  S
N652        H656   1.046       .  S
C661        C662   1.412       .  A
C661        C666   1.402       .  A
C662        C663   1.403       .  A
C662        N667   1.438       .  S
C663        C664   1.399       .  A
C663        H668   1.084       .  S
C664        C669   1.470       .  S
C664        C665   1.408       .  A
C665        C666   1.403       .  A
C665        N670   1.438       .  S
C666        H671   1.084       .  S
N667        H687   1.046       .  S
N667        H688   1.045       .  S
C669        C672   1.400       .  A
C669        C676   1.407       .  A
N670        H685   1.046       .  S
N670        H686   1.045       .  S
C672        C673   1.404       .  A
C672        H677   1.084       .  S
C673        C674   1.409       .  A
C673        N678   1.438       .  S
C674        C675   1.402       .  A
C675        C676   1.403       .  A
C675        H679   1.084       .  S
C676        N680   1.438       .  S
N678        H681   1.045       .  S
N678        H682   1.047       .  S
N680        H683   1.045       .  S
N680        H684   1.045       .  S
C689        C690   1.416       .  A
C689        C694   1.408       .  A
C690        C691   1.413       .  A
C690        N695   1.437       .  S
C691        C692   1.404       .  A
C691        H696   1.084       .  S
C692        C697   1.482   1_554  S
C692        C693   1.405       .  A
C693        C694   1.402       .  A
C693        N698   1.438       .  S
C694        H699   1.083       .  S
N695        H715   1.046       .  S
N695        H716   1.046       .  S
C697        C700   1.399       .  A
C697        C704   1.410       .  A
N698        H713   1.045       .  S
N698        H714   1.045   1_554  S
C700        C701   1.404       .  A
C700        H705   1.084       .  S
C701        C702   1.415       .  A
C701        N706   1.439       .  S
C702        C703   1.404       .  A
C703        C704   1.411       .  A
C703        H707   1.083       .  S
C704        N708   1.437       .  S
N706        H709   1.046       .  S
N706        H710   1.046       .  S
N708        H711   1.046       .  S
N708        H712   1.045       .  S
C717        C718   1.419       .  A
C717        C722   1.406       .  A
C718        C719   1.403       .  A
C718        N723   1.438       .  S
C719        C720   1.397       .  A
C719        H724   1.084       .  S
C720        C725   1.478       .  S
C720        C721   1.409       .  A
C721        C722   1.409       .  A
C721        N726   1.438       .  S
C722        H727   1.083       .  S
N723        H743   1.045       .  S
N723        H744   1.046       .  S
C725        C728   1.403       .  A
C725        C732   1.408       .  A
N726        H741   1.046       .  S
N726        H742   1.044       .  S
C728        C729   1.410       .  A
C728        H733   1.084       .  S
C729        C730   1.413       .  A
C729        N734   1.437       .  S
C730        C731   1.404       .  A
C731        C732   1.402       .  A
C731        H735   1.084       .  S
C732        N736   1.439       .  S
N734        H737   1.046       .  S
N734        H738   1.044       .  S
N736        H739   1.045       .  S
N736        H740   1.045       .  S
C745        C746   1.411       .  A
C745        C750   1.402       .  A
C746        C747   1.405       .  A
C746        N751   1.438       .  S
C747       C1576   1.403       .  A
C747        H752   1.084       .  S
C748        C753   1.484   1_655  S
C748       C1575   1.403       .  A
C748       C1577   1.412       .  A
C749       C1576   1.412       .  A
C749        C750   1.405       .  A
C749        N754   1.438       .  S
C750        H755   1.084       .  S
N751        H771   1.046       .  S
N751        H772   1.046       .  S
C753        C756   1.400       .  A
C753        C760   1.410       .  A
N754        H769   1.046       .  S
N754       H1598   1.045       .  S
C756        C757   1.403       .  A
C756        H761   1.084       .  S
C757        C758   1.417       .  A
C757        N762   1.438       .  S
C758        C759   1.406       .  A
C759        C760   1.406       .  A
C759        H763   1.083       .  S
C760        N764   1.437       .  S
N762        H765   1.045       .  S
N762        H766   1.046       .  S
N764        H767   1.045       .  S
N764        H768   1.046       .  S
H770       N1582   1.045       .  S
C773        C774   1.411       .  A
C773        C778   1.401       .  A
C774        C775   1.409       .  A
C774        N779   1.437       .  S
C775        C776   1.405       .  A
C775        H780   1.083       .  S
C776        C781   1.486       .  S
C776        C777   1.411       .  A
C777        C778   1.401       .  A
C777        N782   1.438       .  S
C778        H783   1.084       .  S
N779        H799   1.047       .  S
N779        H800   1.045       .  S
C781        C784   1.403       .  A
C781        C788   1.410       .  A
N782        H797   1.046       .  S
N782        H798   1.045       .  S
C784        C785   1.406       .  A
C784        H789   1.084       .  S
C785        C786   1.414       .  A
C785        N790   1.437       .  S
C786        C787   1.407       .  A
C787        C788   1.406       .  A
C787        H791   1.083       .  S
C788        N792   1.438       .  S
N790        H793   1.046       .  S
N790        H794   1.044       .  S
N792        H795   1.046       .  S
N792        H796   1.045       .  S
C801        C802   1.415       .  A
C801        C806   1.406       .  A
C802        C803   1.412       .  A
C802        N807   1.437       .  S
C803        C804   1.403       .  A
C803        H808   1.084       .  S
C804        C809   1.479       .  S
C804        C805   1.406       .  A
C805        C806   1.401       .  A
C805        N810   1.439       .  S
C806        H811   1.083       .  S
N807        H827   1.046       .  S
N807        H828   1.046       .  S
C809        C812   1.396       .  A
C809        C816   1.410       .  A
N810        H825   1.045       .  S
N810        H826   1.046       .  S
C812        C813   1.402       .  A
C812        H817   1.084       .  S
C813        C814   1.419       .  A
C813        N818   1.439       .  S
C814        C815   1.406       .  A
C815        C816   1.411       .  A
C815        H819   1.083       .  S
C816        N820   1.437       .  S
N818        H821   1.045       .  S
N818        H822   1.046       .  S
N820        H823   1.046       .  S
N820        H824   1.045       .  S
In829       O831   2.223       .  S
In829       O832   2.232       .  S
In829       O840   2.195       .  S
In829       O834   2.253       .  S
In829       O836   2.255       .  S
In829       O837   2.232       .  S
In829       O838   2.189       .  S
In829       O841   2.218       .  S
C830        O836   1.275       .  A
C830        O838   1.264       .  A
C830       C1228   1.485       .  S
O831        C839   1.267       .  A
O832        C839   1.270       .  A
C833        O840   1.264       .  A
C833        O834   1.275       .  A
C833       C1131   1.488       .  S
C835        O837   1.270       .  A
C835        O841   1.266       .  A
C835       C1159   1.473       .  S
C839       C1200   1.485       .  S
In842       O844   2.204       .  S
In842       O845   2.242       .  S
In842       O853   2.203       .  S
In842       O847   2.261       .  S
In842       O849   2.271       .  S
In842       O850   2.232       .  S
In842       O851   2.208       .  S
In842       O854   2.213       .  S
C843        O849   1.269       .  A
C843        O851   1.260       .  A
C843       C1103   1.489       .  S
O844        C852   1.263       .  A
O845        C852   1.266       .  A
C846        O853   1.262       .  A
C846        O847   1.270       .  A
C846       C1215   1.486       .  S
C848        O850   1.266       .  A
C848        O854   1.262       .  A
C848       C1075   1.469       .  S
C852       C1047   1.471       .  S
In855       O857   2.209       .  S
In855       O858   2.242       .  S
In855       O866   2.199       .  S
In855       O860   2.263       .  S
In855       O862   2.265       .  S
In855       O863   2.241       .  S
In855       O864   2.214       .  S
In855       O867   2.209       .  S
C856        O862   1.270       .  A
C856        O864   1.262       .  A
C856       C1004   1.480       .  S
O857        C865   1.262       .  A
O858        C865   1.268       .  A
C859        O866   1.261       .  A
C859        O860   1.271       .  A
C859       C1019   1.484       .  S
C861        O863   1.268       .  A
C861        O867   1.264       .  A
C861       C1187   1.474       .  S
C865       C1172   1.484       .  S
In868       O870   2.198       .  S
In868       O871   2.250       .  S
In868       O879   2.208       .  S
In868       O873   2.226       .  S
In868       O875   2.223       .  S
In868       O876   2.263       .  S
In868       O877   2.209       .  S
In868       O880   2.191       .  S
C869        O875   1.269       .  A
C869        O877   1.266       .  A
C869       C1088   1.467       .  S
O870        C878   1.264       .  A
O871        C878   1.273       .  A
C872        O879   1.264       .  A
C872        O873   1.269       .  A
C872       C1060   1.471       .  S
C874        O876   1.273       .  A
C874        O880   1.261       .  A
C874        C976   1.481       .  S
C878       C1032   1.474       .  S
In881       O883   2.231       .  S
In881       O884   2.235       .  S
In881       O892   2.202       .  S
In881       O886   2.265       .  S
In881       O888   2.265       .  S
In881       O889   2.249       .  S
In881       O890   2.212       .  S
In881       O893   2.223       .  S
C882        O888   1.269       .  A
C882        O890   1.261       .  A
C882        C991   1.473       .  S
O883        C891   1.263       .  A
O884        C891   1.267       .  A
C885        O892   1.261       .  A
C885        O886   1.270       .  A
C885        C963   1.486       .  S
C887        O889   1.267       .  A
C887        O893   1.264       .  A
C887        C920   1.480       .  S
C891        C948   1.478       .  S
In894       O896   2.220       .  S
In894       O897   2.238       .  S
In894       O905   2.208       .  S
In894       O899   2.266       .  S
In894       O901   2.262       .  S
In894       O902   2.228       .  S
In894       O903   2.206       .  S
In894       O906   2.215       .  S
C895        O901   1.271       .  A
C895        O903   1.262       .  A
C895       C1144   1.482       .  S
O896        C904   1.264       .  A
O897        C904   1.268       .  A
C898        O905   1.261       .  A
C898        O899   1.271       .  A
C898       C1116   1.481       .  S
C900        O902   1.269       .  A
C900        O906   1.264       .  A
C900        C907   1.477       .  S
C904        C935   1.484       .  S
C907        C908   1.411       .  A
C907        C912   1.405       .  A
C908        C909   1.404       .  A
C908        N913   1.438       .  S
C909        C910   1.404       .  A
C909        H914   1.084       .  S
C910        C915   1.484       .  S
C910        C911   1.410       .  A
C911        C912   1.405       .  A
C911        N916   1.438       .  S
C912        H917   1.084       .  S
N913        H933   1.046       .  S
N913        H934   1.045       .  S
C915        C918   1.404       .  A
C915        C922   1.410       .  A
N916        H931   1.046       .  S
N916        H932   1.045       .  S
C918       C1333   1.409   1_545  A
C918        H923   1.084       .  S
C919       C1332   1.408       .  A
C919        C920   1.413       .  A
C919        N924   1.437       .  S
C920        C921   1.404       .  A
C921       C1336   1.403       .  A
C921        H925   1.084       .  S
C922       C1335   1.403   1_545  A
C922        N926   1.438       .  S
N924        H927   1.046       .  S
N924        H928   1.046       .  S
N926        H929   1.046   1_545  S
N926        H930   1.045       .  S
C935        C936   1.415       .  A
C935        C940   1.405       .  A
C936        C937   1.404       .  A
C936        N941   1.438       .  S
C937        H942   1.084   1_655  S
C938        C943   1.487       .  S
C939        C940   1.406   1_455  A
C940        H945   1.083       .  S
N941        H961   1.045       .  S
N941        H962   1.045       .  S
C943        C946   1.404       .  A
C943        C950   1.412       .  A
N944        H960   1.046       .  S
C946        C947   1.405       .  A
C946        H951   1.084       .  S
C947        C948   1.414       .  A
C947        N952   1.438       .  S
C948        C949   1.402       .  A
C949        C950   1.403       .  A
C949        H953   1.084       .  S
C950        N954   1.438       .  S
N952        H955   1.047       .  S
N952        H956   1.045       .  S
N954        H957   1.046       .  S
N954        H958   1.045       .  S
C963        C964   1.415       .  A
C963        C968   1.406       .  A
C964        C965   1.412       .  A
C964        N969   1.437       .  S
C965        C966   1.404       .  A
C965        H970   1.083       .  S
C966        C971   1.482   1_556  S
C966        C967   1.407       .  A
C967        C968   1.399       .  A
C967        N972   1.439       .  S
C968        H973   1.083       .  S
N969        H989   1.045       .  S
N969        H990   1.046       .  S
C971        C974   1.399       .  A
C971        C978   1.410       .  A
N972        H987   1.045       .  S
N972        H988   1.046       .  S
C974        C975   1.400       .  A
C974        H979   1.084       .  S
C975        C976   1.415       .  A
C975        N980   1.439       .  S
C976        C977   1.405       .  A
C977        C978   1.411       .  A
C977        H981   1.083       .  S
C978        N982   1.437       .  S
N980        H983   1.046       .  S
N980        H984   1.045       .  S
N982        H985   1.046       .  S
N982        H986   1.045       .  S
C991        C992   1.409       .  A
C991        C996   1.399       .  A
C992        C993   1.407       .  A
C992        N997   1.438       .  S
C993        C994   1.405       .  A
C993        H998   1.083       .  S
C994        C999   1.494       .  S
C994        C995   1.417       .  A
C995        C996   1.409       .  A
C995       N1000   1.438       .  S
C996       H1001   1.084       .  S
N997       H1017   1.047       .  S
N997       H1018   1.045       .  S
C999       C1002   1.403       .  A
C999       C1006   1.417       .  A
N1000      H1015   1.046       .  S
N1000      H1016   1.045       .  S
C1002      C1003   1.406       .  A
C1002      H1007   1.084       .  S
C1003      C1004   1.412       .  A
C1003      N1008   1.438       .  S
C1004      C1005   1.401       .  A
C1005      C1006   1.410       .  A
C1005      H1009   1.084       .  S
C1006      N1010   1.438       .  S
N1008      H1011   1.045       .  S
N1008      H1012   1.047       .  S
N1010      H1013   1.045       .  S
N1010      H1014   1.045       .  S
C1019      C1020   1.417       .  A
C1019      C1024   1.405       .  A
C1020      C1021   1.403       .  A
C1020      N1025   1.438       .  S
C1021      C1022   1.397       .  A
C1021      H1026   1.084       .  S
C1022      C1027   1.478       .  S
C1022      C1023   1.410       .  A
C1023      C1024   1.409       .  A
C1023      N1028   1.438       .  S
C1024      H1029   1.083       .  S
N1025      H1045   1.046       .  S
N1025      H1046   1.045       .  S
C1027      C1030   1.403       .  A
C1027      C1034   1.408       .  A
N1028      H1043   1.045       .  S
N1028      H1044   1.045       .  S
C1030      C1031   1.410       .  A
C1030      H1035   1.084       .  S
C1031      C1032   1.411       .  A
C1031      N1036   1.437       .  S
C1032      C1033   1.402       .  A
C1033      C1034   1.401       .  A
C1033      H1037   1.084       .  S
C1034      N1038   1.439       .  S
N1036      H1039   1.046       .  S
N1036      H1040   1.045       .  S
N1038      H1041   1.045       .  S
N1038      H1042   1.045       .  S
C1047      C1048   1.411       .  A
C1047      C1052   1.403       .  A
C1048      C1049   1.399       .  A
C1048      N1053   1.438       .  S
C1049      C1050   1.399       .  A
C1049      H1054   1.084       .  S
C1050      C1055   1.475       .  S
C1050      C1051   1.410       .  A
C1051      C1052   1.406       .  A
C1051      N1056   1.438       .  S
C1052      H1057   1.084       .  S
N1053      H1073   1.046       .  S
N1053      H1074   1.045       .  S
C1055      C1058   1.400   1_545  A
C1055      C1062   1.410       .  A
N1056      H1071   1.045       .  S
N1056      H1072   1.046       .  S
C1058      C1473   1.404       .  A
C1058      H1063   1.084   1_565  S
C1059      C1472   1.404       .  A
C1059      C1060   1.414       .  A
C1059      N1064   1.438       .  S
C1060      C1061   1.401       .  A
C1061      C1476   1.401       .  A
C1061      H1065   1.084       .  S
C1062      C1475   1.402   1_545  A
C1062      N1066   1.438       .  S
N1064      H1067   1.045       .  S
N1064      H1068   1.046       .  S
N1066      H1069   1.045       .  S
N1066      H1070   1.046       .  S
C1075      C1076   1.412       .  A
C1075      C1080   1.402       .  A
C1076      C1077   1.403       .  A
C1076      N1081   1.438       .  S
C1077      C1078   1.399       .  A
C1077      H1082   1.084       .  S
C1078      C1083   1.470       .  S
C1078      C1079   1.408       .  A
C1079      C1080   1.403       .  A
C1079      N1084   1.438       .  S
C1080      H1085   1.084       .  S
N1081      H1101   1.046       .  S
N1081      H1102   1.045       .  S
C1083      C1086   1.401       .  A
C1083      C1090   1.407       .  A
N1084      H1099   1.046       .  S
N1084      H1100   1.045       .  S
C1086      C1087   1.404       .  A
C1086      H1091   1.084       .  S
C1087      C1088   1.409       .  A
C1087      N1092   1.438       .  S
C1088      C1089   1.402       .  A
C1089      C1090   1.402       .  A
C1089      H1093   1.084       .  S
C1090      N1094   1.438       .  S
N1092      H1095   1.045       .  S
N1092      H1096   1.047       .  S
N1094      H1097   1.045       .  S
N1094      H1098   1.045       .  S
C1103      C1104   1.416       .  A
C1103      C1108   1.408       .  A
C1104      C1105   1.413       .  A
C1104      N1109   1.437       .  S
C1105      C1106   1.404       .  A
C1105      H1110   1.084       .  S
C1106      C1111   1.481   1_554  S
C1106      C1107   1.405       .  A
C1107      C1108   1.402       .  A
C1107      N1112   1.438       .  S
C1108      H1113   1.083       .  S
N1109      H1129   1.046       .  S
N1109      H1130   1.046       .  S
C1111      C1114   1.399       .  A
C1111      C1118   1.410       .  A
N1112      H1127   1.045       .  S
N1112      H1128   1.045   1_554  S
C1114      C1115   1.404       .  A
C1114      H1119   1.084       .  S
C1115      C1116   1.415       .  A
C1115      N1120   1.439       .  S
C1116      C1117   1.404       .  A
C1117      C1118   1.411       .  A
C1117      H1121   1.083       .  S
C1118      N1122   1.437       .  S
N1120      H1123   1.046       .  S
N1120      H1124   1.046       .  S
N1122      H1125   1.046       .  S
N1122      H1126   1.045       .  S
C1131      C1132   1.420       .  A
C1131      C1136   1.406       .  A
C1132      C1133   1.403       .  A
C1132      N1137   1.438       .  S
C1133      C1134   1.397       .  A
C1133      H1138   1.084       .  S
C1134      C1139   1.479       .  S
C1134      C1135   1.409       .  A
C1135      C1136   1.409       .  A
C1135      N1140   1.438       .  S
C1136      H1141   1.083       .  S
N1137      H1157   1.046       .  S
N1137      H1158   1.046       .  S
C1139      C1142   1.403       .  A
C1139      C1146   1.407       .  A
N1140      H1155   1.046       .  S
N1140      H1156   1.044       .  S
C1142      C1143   1.410       .  A
C1142      H1147   1.084       .  S
C1143      C1144   1.413       .  A
C1143      N1148   1.437       .  S
C1144      C1145   1.405       .  A
C1145      C1146   1.402       .  A
C1145      H1149   1.084       .  S
C1146      N1150   1.439       .  S
N1148      H1151   1.046       .  S
N1148      H1152   1.045       .  S
N1150      H1153   1.046       .  S
N1150      H1154   1.045       .  S
C1159      C1160   1.411       .  A
C1159      C1164   1.402       .  A
C1160      C1161   1.404       .  A
C1160      N1165   1.438       .  S
C1161      H1166   1.084       .  S
C1162      C1167   1.482       .  S
C1163      C1164   1.405       .  A
C1163      N1168   1.438   1_655  S
C1164      H1169   1.084       .  S
N1165      H1185   1.046       .  S
N1165      H1186   1.046       .  S
C1167      C1170   1.400       .  A
C1167      C1174   1.409       .  A
N1168      H1183   1.045   1_455  S
C1170      C1171   1.402       .  A
C1170      H1175   1.084       .  S
C1171      C1172   1.417       .  A
C1171      N1176   1.438       .  S
C1172      C1173   1.406       .  A
C1173      C1174   1.406       .  A
C1173      H1177   1.083       .  S
C1174      N1178   1.437       .  S
N1176      H1179   1.045       .  S
N1176      H1180   1.046       .  S
N1178      H1181   1.046       .  S
N1178      H1182   1.046       .  S
C1187      C1188   1.411       .  A
C1187      C1192   1.401       .  A
C1188      C1189   1.409       .  A
C1188      N1193   1.437       .  S
C1189      C1190   1.405       .  A
C1189      H1194   1.083       .  S
C1190      C1195   1.485       .  S
C1190      C1191   1.411       .  A
C1191      C1192   1.400       .  A
C1191      N1196   1.438       .  S
C1192      H1197   1.084       .  S
N1193      H1213   1.046       .  S
N1193      H1214   1.045       .  S
C1195      C1198   1.403       .  A
C1195      C1202   1.409       .  A
N1196      H1211   1.046       .  S
N1196      H1212   1.045       .  S
C1198      C1199   1.406       .  A
C1198      H1203   1.084       .  S
C1199      C1200   1.414       .  A
C1199      N1204   1.437       .  S
C1200      C1201   1.407       .  A
C1201      C1202   1.406       .  A
C1201      H1205   1.083       .  S
C1202      N1206   1.438       .  S
N1204      H1207   1.046       .  S
N1204      H1208   1.044       .  S
N1206      H1209   1.046       .  S
N1206      H1210   1.045       .  S
C1215      C1216   1.415       .  A
C1215      C1220   1.407       .  A
C1216      C1217   1.412       .  A
C1216      N1221   1.437       .  S
C1217      C1218   1.403       .  A
C1217      H1222   1.084       .  S
C1218      C1223   1.479       .  S
C1218      C1219   1.405       .  A
C1219      C1220   1.400       .  A
C1219      N1224   1.439       .  S
C1220      H1225   1.083       .  S
N1221      H1241   1.045       .  S
N1221      H1242   1.046       .  S
C1223      C1226   1.397       .  A
C1223      C1230   1.410       .  A
N1224      H1239   1.045       .  S
N1224      H1240   1.046       .  S
C1226      C1227   1.402       .  A
C1226      H1231   1.084       .  S
C1227      C1228   1.418       .  A
C1227      N1232   1.439       .  S
C1228      C1229   1.406       .  A
C1229      C1230   1.410       .  A
C1229      H1233   1.083       .  S
C1230      N1234   1.438       .  S
N1232      H1235   1.046       .  S
N1232      H1236   1.046       .  S
N1234      H1237   1.046       .  S
N1234      H1238   1.045       .  S
In1243     O1245   2.223       .  S
In1243     O1246   2.232       .  S
In1243     O1254   2.195       .  S
In1243     O1248   2.252       .  S
In1243     O1250   2.256       .  S
In1243     O1251   2.233       .  S
In1243     O1252   2.189       .  S
In1243     O1255   2.219       .  S
C1244      O1250   1.275       .  A
C1244      O1252   1.264       .  A
C1244      C1642   1.487       .  S
O1245      C1253   1.267       .  A
O1246      C1253   1.271       .  A
C1247      O1254   1.264       .  A
C1247      O1248   1.274       .  A
C1247      C1545   1.486       .  S
C1249      O1251   1.270       .  A
C1249      O1255   1.266       .  A
C1249      C1573   1.475       .  S
C1253      C1614   1.485       .  S
In1256     O1258   2.203       .  S
In1256     O1259   2.242       .  S
In1256     O1267   2.205       .  S
In1256     O1261   2.262       .  S
In1256     O1263   2.274       .  S
In1256     O1264   2.232       .  S
In1256     O1265   2.208       .  S
In1256     O1268   2.214       .  S
C1257      O1263   1.269       .  A
C1257      O1265   1.260       .  A
C1257      C1517   1.490       .  S
O1258      C1266   1.263       .  A
O1259      C1266   1.266       .  A
C1260      O1267   1.262       .  A
C1260      O1261   1.271       .  A
C1260      C1629   1.485       .  S
C1262      O1264   1.265       .  A
C1262      O1268   1.262       .  A
C1262      C1489   1.469       .  S
C1266      C1461   1.471       .  S
In1269     O1271   2.211       .  S
In1269     O1272   2.244       .  S
In1269     O1280   2.201       .  S
In1269     O1274   2.263       .  S
In1269     O1276   2.264       .  S
In1269     O1277   2.243       .  S
In1269     O1278   2.215       .  S
In1269     O1281   2.210       .  S
C1270      O1276   1.270       .  A
C1270      O1278   1.262       .  A
C1270      C1418   1.480       .  S
O1271      C1279   1.263       .  A
O1272      C1279   1.268       .  A
C1273      O1280   1.261       .  A
C1273      O1274   1.271       .  A
C1273      C1433   1.485       .  S
C1275      O1277   1.268       .  A
C1275      O1281   1.264       .  A
C1275      C1601   1.475       .  S
C1279      C1586   1.485       .  S
In1282     O1284   2.199       .  S
In1282     O1285   2.252       .  S
In1282     O1293   2.209       .  S
In1282     O1287   2.228       .  S
In1282     O1289   2.222       .  S
In1282     O1290   2.265       .  S
In1282     O1291   2.210       .  S
In1282     O1294   2.193       .  S
C1283      O1289   1.269       .  A
C1283      O1291   1.266       .  A
C1283      C1502   1.467       .  S
O1284      C1292   1.264       .  A
O1285      C1292   1.273       .  A
C1286      O1293   1.264       .  A
C1286      O1287   1.269       .  A
C1286      C1474   1.472       .  S
C1288      O1290   1.273       .  A
C1288      O1294   1.261       .  A
C1288      C1390   1.482       .  S
C1292      C1446   1.475       .  S
In1295     O1297   2.230       .  S
In1295     O1298   2.235       .  S
In1295     O1306   2.201       .  S
In1295     O1300   2.265       .  S
In1295     O1302   2.265       .  S
In1295     O1303   2.250       .  S
In1295     O1304   2.212       .  S
In1295     O1307   2.222       .  S
C1296      O1302   1.269       .  A
C1296      O1304   1.261       .  A
C1296      C1405   1.474       .  S
O1297      C1305   1.262       .  A
O1298      C1305   1.266       .  A
C1299      O1306   1.261       .  A
C1299      O1300   1.270       .  A
C1299      C1377   1.485       .  S
C1301      O1303   1.267       .  A
C1301      O1307   1.264       .  A
C1301      C1334   1.480       .  S
C1305      C1362   1.479       .  S
In1308     O1310   2.224       .  S
In1308     O1311   2.237       .  S
In1308     O1319   2.208       .  S
In1308     O1313   2.269       .  S
In1308     O1315   2.262       .  S
In1308     O1316   2.229       .  S
In1308     O1317   2.207       .  S
In1308     O1320   2.216       .  S
C1309      O1315   1.271       .  A
C1309      O1317   1.261       .  A
C1309      C1558   1.480       .  S
O1310      C1318   1.264       .  A
O1311      C1318   1.267       .  A
C1312      O1319   1.261       .  A
C1312      O1313   1.271       .  A
C1312      C1530   1.482       .  S
C1314      O1316   1.268       .  A
C1314      O1320   1.264       .  A
C1314      C1321   1.477       .  S
C1318      C1349   1.484       .  S
C1321      C1322   1.411       .  A
C1321      C1326   1.405       .  A
C1322      C1323   1.404       .  A
C1322      N1327   1.438       .  S
C1323      C1324   1.404       .  A
C1323      H1328   1.084       .  S
C1324      C1329   1.485       .  S
C1324      C1325   1.410       .  A
C1325      C1326   1.405       .  A
C1325      N1330   1.438       .  S
C1326      H1331   1.084       .  S
N1327      H1347   1.046       .  S
N1327      H1348   1.045       .  S
C1329      C1332   1.404       .  A
C1329      C1336   1.410       .  A
N1330      H1345   1.046       .  S
N1330      H1346   1.045       .  S
C1332      H1337   1.084       .  S
C1333      C1334   1.413       .  A
C1333      N1338   1.437       .  S
C1334      C1335   1.403       .  A
C1335      H1339   1.084       .  S
C1336      N1340   1.438       .  S
N1338      H1341   1.046       .  S
N1338      H1342   1.046       .  S
N1340      H1343   1.045       .  S
N1340      H1344   1.045       .  S
C1349      C1350   1.415       .  A
C1349      C1354   1.405       .  A
C1350      C1351   1.404       .  A
C1350      N1355   1.438       .  S
C1351      H1356   1.084   1_655  S
C1352      C1357   1.488       .  S
C1353      C1354   1.406       .  A
C1354      H1359   1.083       .  S
N1355      H1375   1.045       .  S
N1355      H1376   1.046       .  S
C1357      C1360   1.404       .  A
C1357      C1364   1.412       .  A
N1358      H1374   1.046       .  S
C1360      C1361   1.405       .  A
C1360      H1365   1.084       .  S
C1361      C1362   1.414       .  A
C1361      N1366   1.438       .  S
C1362      C1363   1.402       .  A
C1363      C1364   1.404       .  A
C1363      H1367   1.084       .  S
C1364      N1368   1.438       .  S
N1366      H1369   1.047       .  S
N1366      H1370   1.045       .  S
N1368      H1371   1.046       .  S
N1368      H1372   1.045       .  S
C1377      C1378   1.415       .  A
C1377      C1382   1.406       .  A
C1378      C1379   1.413       .  A
C1378      N1383   1.437       .  S
C1379      C1380   1.404       .  A
C1379      H1384   1.083       .  S
C1380      C1385   1.482   1_556  S
C1380      C1381   1.407       .  A
C1381      C1382   1.399       .  A
C1381      N1386   1.439       .  S
C1382      H1387   1.084       .  S
N1383      H1403   1.045       .  S
N1383      H1404   1.046       .  S
C1385      C1388   1.399       .  A
C1385      C1392   1.410       .  A
N1386      H1401   1.045       .  S
N1386      H1402   1.046       .  S
C1388      C1389   1.400       .  A
C1388      H1393   1.084       .  S
C1389      C1390   1.415       .  A
C1389      N1394   1.439       .  S
C1390      C1391   1.405       .  A
C1391      C1392   1.411       .  A
C1391      H1395   1.083       .  S
C1392      N1396   1.437       .  S
N1394      H1397   1.046       .  S
N1394      H1398   1.045       .  S
N1396      H1399   1.046       .  S
N1396      H1400   1.045       .  S
C1405      C1406   1.409       .  A
C1405      C1410   1.399       .  A
C1406      C1407   1.407       .  A
C1406      N1411   1.438       .  S
C1407      C1408   1.405       .  A
C1407      H1412   1.083       .  S
C1408      C1413   1.494       .  S
C1408      C1409   1.417       .  A
C1409      C1410   1.409       .  A
C1409      N1414   1.438       .  S
C1410      H1415   1.084       .  S
N1411      H1431   1.047       .  S
N1411      H1432   1.044       .  S
C1413      C1416   1.403       .  A
C1413      C1420   1.417       .  A
N1414      H1429   1.046       .  S
N1414      H1430   1.045       .  S
C1416      C1417   1.406       .  A
C1416      H1421   1.084       .  S
C1417      C1418   1.411       .  A
C1417      N1422   1.438       .  S
C1418      C1419   1.401       .  A
C1419      C1420   1.410       .  A
C1419      H1423   1.084       .  S
C1420      N1424   1.438       .  S
N1422      H1425   1.045       .  S
N1422      H1426   1.047       .  S
N1424      H1427   1.046       .  S
N1424      H1428   1.045       .  S
C1433      C1434   1.418       .  A
C1433      C1438   1.405       .  A
C1434      C1435   1.403       .  A
C1434      N1439   1.438       .  S
C1435      C1436   1.397       .  A
C1435      H1440   1.084       .  S
C1436      C1441   1.478       .  S
C1436      C1437   1.410       .  A
C1437      C1438   1.409       .  A
C1437      N1442   1.438       .  S
C1438      H1443   1.083       .  S
N1439      H1459   1.046       .  S
N1439      H1460   1.046       .  S
C1441      C1444   1.403       .  A
C1441      C1448   1.408       .  A
N1442      H1457   1.045       .  S
N1442      H1458   1.045       .  S
C1444      C1445   1.410       .  A
C1444      H1449   1.084       .  S
C1445      C1446   1.411       .  A
C1445      N1450   1.437       .  S
C1446      C1447   1.402       .  A
C1447      C1448   1.401       .  A
C1447      H1451   1.084       .  S
C1448      N1452   1.439       .  S
N1450      H1453   1.046       .  S
N1450      H1454   1.045       .  S
N1452      H1455   1.046       .  S
N1452      H1456   1.045       .  S
C1461      C1462   1.411       .  A
C1461      C1466   1.403       .  A
C1462      C1463   1.399       .  A
C1462      N1467   1.438       .  S
C1463      C1464   1.399       .  A
C1463      H1468   1.084       .  S
C1464      C1469   1.474       .  S
C1464      C1465   1.409       .  A
C1465      C1466   1.406       .  A
C1465      N1470   1.438       .  S
C1466      H1471   1.084       .  S
N1467      H1487   1.046       .  S
N1467      H1488   1.045       .  S
C1469      C1472   1.400       .  A
C1469      C1476   1.409       .  A
N1470      H1485   1.045       .  S
N1470      H1486   1.046       .  S
C1472      H1477   1.084       .  S
C1473      C1474   1.414       .  A
C1473      N1478   1.438       .  S
C1474      C1475   1.401       .  A
C1475      H1479   1.084       .  S
C1476      N1480   1.438       .  S
N1478      H1481   1.046       .  S
N1478      H1482   1.046       .  S
N1480      H1483   1.045       .  S
N1480      H1484   1.046       .  S
C1489      C1490   1.412       .  A
C1489      C1494   1.402       .  A
C1490      C1491   1.403       .  A
C1490      N1495   1.438       .  S
C1491      C1492   1.399       .  A
C1491      H1496   1.084       .  S
C1492      C1497   1.470       .  S
C1492      C1493   1.408       .  A
C1493      C1494   1.403       .  A
C1493      N1498   1.438       .  S
C1494      H1499   1.084       .  S
N1495      H1515   1.046       .  S
N1495      H1516   1.045       .  S
C1497      C1500   1.400       .  A
C1497      C1504   1.407       .  A
N1498      H1513   1.046       .  S
N1498      H1514   1.045       .  S
C1500      C1501   1.404       .  A
C1500      H1505   1.084       .  S
C1501      C1502   1.409       .  A
C1501      N1506   1.438       .  S
C1502      C1503   1.402       .  A
C1503      C1504   1.402       .  A
C1503      H1507   1.084       .  S
C1504      N1508   1.438       .  S
N1506      H1509   1.045       .  S
N1506      H1510   1.047       .  S
N1508      H1511   1.045       .  S
N1508      H1512   1.045       .  S
C1517      C1518   1.416       .  A
C1517      C1522   1.408       .  A
C1518      C1519   1.413       .  A
C1518      N1523   1.437       .  S
C1519      C1520   1.404       .  A
C1519      H1524   1.084       .  S
C1520      C1525   1.482   1_554  S
C1520      C1521   1.405       .  A
C1521      C1522   1.402       .  A
C1521      N1526   1.438       .  S
C1522      H1527   1.083       .  S
N1523      H1543   1.046       .  S
N1523      H1544   1.046       .  S
C1525      C1528   1.399       .  A
C1525      C1532   1.410       .  A
N1526      H1541   1.046       .  S
N1526      H1542   1.045   1_554  S
C1528      C1529   1.404       .  A
C1528      H1533   1.084       .  S
C1529      C1530   1.415       .  A
C1529      N1534   1.439       .  S
C1530      C1531   1.404       .  A
C1531      C1532   1.411       .  A
C1531      H1535   1.083       .  S
C1532      N1536   1.437       .  S
N1534      H1537   1.046       .  S
N1534      H1538   1.046       .  S
N1536      H1539   1.046       .  S
N1536      H1540   1.045       .  S
C1545      C1546   1.419       .  A
C1545      C1550   1.406       .  A
C1546      C1547   1.403       .  A
C1546      N1551   1.438       .  S
C1547      C1548   1.397       .  A
C1547      H1552   1.084       .  S
C1548      C1553   1.478       .  S
C1548      C1549   1.409       .  A
C1549      C1550   1.409       .  A
C1549      N1554   1.438       .  S
C1550      H1555   1.083       .  S
N1551      H1571   1.045       .  S
N1551      H1572   1.046       .  S
C1553      C1556   1.403       .  A
C1553      C1560   1.408       .  A
N1554      H1569   1.046       .  S
N1554      H1570   1.044       .  S
C1556      C1557   1.410       .  A
C1556      H1561   1.084       .  S
C1557      C1558   1.413       .  A
C1557      N1562   1.437       .  S
C1558      C1559   1.404       .  A
C1559      C1560   1.402       .  A
C1559      H1563   1.084       .  S
C1560      N1564   1.439       .  S
N1562      H1565   1.046       .  S
N1562      H1566   1.045       .  S
N1564      H1567   1.046       .  S
N1564      H1568   1.045       .  S
C1573      C1574   1.411       .  A
C1573      C1578   1.402       .  A
C1574      C1575   1.405       .  A
C1574      N1579   1.438       .  S
C1575      H1580   1.084       .  S
C1576      C1581   1.484       .  S
C1577      C1578   1.405       .  A
C1577      N1582   1.438   1_655  S
C1578      H1583   1.084       .  S
N1579      H1599   1.046       .  S
N1579      H1600   1.046       .  S
C1581      C1584   1.400       .  A
C1581      C1588   1.410       .  A
N1582      H1597   1.045   1_455  S
C1584      C1585   1.403       .  A
C1584      H1589   1.084       .  S
C1585      C1586   1.417       .  A
C1585      N1590   1.438       .  S
C1586      C1587   1.406       .  A
C1587      C1588   1.406       .  A
C1587      H1591   1.083       .  S
C1588      N1592   1.437       .  S
N1590      H1593   1.045       .  S
N1590      H1594   1.046       .  S
N1592      H1595   1.046       .  S
N1592      H1596   1.046       .  S
C1601      C1602   1.411       .  A
C1601      C1606   1.401       .  A
C1602      C1603   1.409       .  A
C1602      N1607   1.437       .  S
C1603      C1604   1.405       .  A
C1603      H1608   1.083       .  S
C1604      C1609   1.486       .  S
C1604      C1605   1.411       .  A
C1605      C1606   1.401       .  A
C1605      N1610   1.438       .  S
C1606      H1611   1.084       .  S
N1607      H1627   1.047       .  S
N1607      H1628   1.045       .  S
C1609      C1612   1.403       .  A
C1609      C1616   1.410       .  A
N1610      H1625   1.046       .  S
N1610      H1626   1.045       .  S
C1612      C1613   1.406       .  A
C1612      H1617   1.084       .  S
C1613      C1614   1.414       .  A
C1613      N1618   1.438       .  S
C1614      C1615   1.407       .  A
C1615      C1616   1.406       .  A
C1615      H1619   1.083       .  S
C1616      N1620   1.438       .  S
N1618      H1621   1.046       .  S
N1618      H1622   1.044       .  S
N1620      H1623   1.046       .  S
N1620      H1624   1.045       .  S
C1629      C1630   1.415       .  A
C1629      C1634   1.406       .  A
C1630      C1631   1.412       .  A
C1630      N1635   1.437       .  S
C1631      C1632   1.403       .  A
C1631      H1636   1.084       .  S
C1632      C1637   1.479       .  S
C1632      C1633   1.406       .  A
C1633      C1634   1.401       .  A
C1633      N1638   1.439       .  S
C1634      H1639   1.083       .  S
N1635      H1655   1.046       .  S
N1635      H1656   1.046       .  S
C1637      C1640   1.396       .  A
C1637      C1644   1.410       .  A
N1638      H1653   1.045       .  S
N1638      H1654   1.046       .  S
C1640      C1641   1.402       .  A
C1640      H1645   1.084       .  S
C1641      C1642   1.419       .  A
C1641      N1646   1.439       .  S
C1642      C1643   1.406       .  A
C1643      C1644   1.411       .  A
C1643      H1647   1.083       .  S
C1644      N1648   1.437       .  S
N1646      H1649   1.046       .  S
N1646      H1650   1.046       .  S
N1648      H1651   1.046       .  S
N1648      H1652   1.045       .  S
