geometry optimzed in LAMMPS
_audit_creation_date              2020-12-01 
_audit_creation_method            'lammps2cif' 
_symmetry_space_group_name_H-M    'P1' 
_symmetry_Int_Tables_number       1 
_symmetry_cell_setting            triclinic 
loop_ 
_symmetry_equiv_pos_as_xyz 
  x,y,z 
_cell_length_a                    50.44194913 
_cell_length_b                    50.52513532923852 
_cell_length_c                    33.53104882835546 
_cell_angle_alpha                 89.57287187113187 
_cell_angle_beta                  90.24810074245781 
_cell_angle_gamma                 119.99175859738038 
loop_ 
_atom_site_label 
_atom_site_type_symbol 
_atom_site_fract_x 
_atom_site_fract_y 
_atom_site_fract_z 
_atom_site_charge 
O1          O  0.38417272  0.89024108  0.56741082    -0.56800
C2          C  0.32584352  0.86284460  0.65646470     0.75800
O3          O  0.32991837  0.92156385  0.59100960    -0.58000
C4          C  0.38062601  0.86966548  0.54315588     0.75800
C5          C  0.27511346  0.82717102  0.53278176     0.78200
Cd6        Cd  0.32933841  0.87384604  0.57214863     1.37500
O7          O  0.34533966  0.86068167  0.63518599    -0.56800
O8          O  0.28228782  0.82384333  0.56787040    -0.55600
C9          C  0.34305896  0.93632078  0.55972787     0.78100
O10         O  0.29202805  0.85296579  0.51669418    -0.58000
O11         O  0.30745512  0.86891518  0.63822371    -0.56500
O12         O  0.35335084  0.85067115  0.53357620    -0.56400
O13         O  0.34761348  0.92140399  0.53318087    -0.55600
O14         O  0.14435838  0.62570182  0.41025823    -0.56800
C15         C  0.14363433  0.67598432  0.32589660     0.75800
O16         O  0.08553066  0.67263280  0.41460549    -0.58000
C17         C  0.14375066  0.62252914  0.44779442     0.75800
C18         C  0.17721660  0.72322598  0.45195124     0.78200
Cd19       Cd  0.13332482  0.66855154  0.41081915     1.37500
O20         O  0.15155200  0.66022838  0.34705786    -0.56800
O21         O  0.18213641  0.71676974  0.41740344    -0.55600
C22         C  0.06789408  0.64397911  0.41646370     0.78100
O23         O  0.15141625  0.70500353  0.46703264    -0.58000
O24         O  0.13181681  0.68929278  0.34442041    -0.56500
O25         O  0.13920109  0.64110741  0.46760042    -0.56400
O26         O  0.08079362  0.62806778  0.41612950    -0.55600
O27         O  0.34541405  0.85320225  0.84763423    -0.56800
C28         C  0.38142054  0.85787938  0.95395147     0.75800
O29         O  0.32709160  0.91042155  0.92036719    -0.58000
C30         C  0.32892482  0.86157393  0.82901066     0.75800
C31         C  0.27857889  0.81416045  0.94623062     0.78200
Cd32       Cd  0.33411394  0.86480962  0.91455726     1.37500
O33         O  0.38142901  0.86134496  0.91645164    -0.56800
O34         O  0.29474634  0.81082699  0.92028499    -0.55600
C35         C  0.35483830  0.92856277  0.92909569     0.78100
O36         O  0.28771407  0.84137007  0.95700881    -0.58000
O37         O  0.35914126  0.85684500  0.97266281    -0.56500
O38         O  0.31478186  0.87105092  0.85021464    -0.56400
O39         O  0.37179341  0.91687962  0.93220500    -0.55600
O40         O  0.15208018  0.65143587  0.13643293    -0.56800
C41         C  0.13735213  0.61076864  0.02876633     0.75800
O42         O  0.08576130  0.65498285  0.04651381    -0.58000
C43         C  0.14856882  0.67163815  0.15384416     0.75800
C44         C  0.17842447  0.71244182  0.02782027     0.78200
Cd45       Cd  0.13418253  0.65883362  0.07042930     1.37500
O46         O  0.14926422  0.61971788  0.06293383    -0.56800
O47         O  0.18252732  0.69044227  0.03688209    -0.55600
C48         C  0.06902350  0.63459741  0.07164074     0.78100
O49         O  0.15354971  0.71033767  0.03929942    -0.58000
O50         O  0.12358527  0.62382675  0.01436185    -0.56500
O51         O  0.14056089  0.68694483  0.13197520    -0.56400
O52         O  0.08257359  0.62582261  0.09548949    -0.55600
O53         O  0.14963186  0.48863751  0.63637956    -0.56800
C54         C  0.14480377  0.52185112  0.53072905     0.75800
O55         O  0.14924502  0.44330256  0.51760378    -0.58000
C56         C  0.13929380  0.46369447  0.65556402     0.75800
C57         C  0.06611189  0.42970790  0.56494517     0.78200
Cd58       Cd  0.13197419  0.46537490  0.57029189     1.37500
O59         O  0.13773886  0.49764598  0.51178312    -0.56800
O60         O  0.08091782  0.45785302  0.57288105    -0.55600
C61         C  0.17464862  0.45058757  0.53392135     0.78100
O62         O  0.08199292  0.41712050  0.55846188    -0.58000
O63         O  0.14770143  0.52051316  0.56811081    -0.56500
O64         O  0.12641573  0.43954263  0.63498626    -0.56400
O65         O  0.17974365  0.46371350  0.56730864    -0.55600
O66         O  0.38351722  0.50983537  0.43045182    -0.56800
C67         C  0.33267357  0.46424706  0.34249996     0.75800
O68         O  0.33356599  0.41160567  0.42048787    -0.58000
C69         C  0.38086001  0.51684459  0.46585184     0.75800
C70         C  0.27618508  0.44903337  0.45873965     0.78200
Cd71       Cd  0.33475245  0.46085415  0.42872325     1.37500
O72         O  0.34902666  0.48774635  0.36335957    -0.56800
O73         O  0.28881098  0.46621765  0.42897078    -0.55600
C74         C  0.35607649  0.41781968  0.44298244     0.78100
O75         O  0.29025597  0.43658361  0.47408878    -0.58000
O76         O  0.31732227  0.43954043  0.36169388    -0.56500
O77         O  0.35617328  0.49851897  0.48345999    -0.56400
O78         O  0.36725331  0.44290635  0.46121256    -0.55600
O79         O  0.14422749  0.48315644  0.85043431    -0.56800
C80         C  0.13993944  0.51010465  0.95026624     0.75800
O81         O  0.08274367  0.43449454  0.94815835    -0.58000
C82         C  0.13986750  0.46086314  0.82888408     0.75800
C83         C  0.18049708  0.44699953  0.95191601     0.78200
Cd84       Cd  0.13297197  0.45509962  0.91498636     1.37500
O85         O  0.12526724  0.49941357  0.91810282    -0.56800
O86         O  0.18513457  0.46196039  0.91978926    -0.55600
C87         C  0.06957744  0.40907543  0.93061259     0.78100
O88         O  0.15349670  0.43431446  0.96549288    -0.58000
O89         O  0.15263356  0.49608818  0.96493318    -0.56500
O90         O  0.13319566  0.43636963  0.84736370    -0.56400
O91         O  0.08620948  0.40401131  0.90737248    -0.55600
O92         O  0.35052288  0.49398679  0.14887559    -0.56800
C93         C  0.38232630  0.52460856  0.04316313     0.75800
O94         O  0.33528316  0.41768047  0.07617329    -0.58000
C95         C  0.33478674  0.46979100  0.16904454     0.75800
C96         C  0.28201313  0.45475239  0.04253017     0.78200
Cd97       Cd  0.33859300  0.46852271  0.08283377     1.37500
O98         O  0.37493602  0.52481802  0.07918274    -0.56800
O99         O  0.28811200  0.46623546  0.07704948    -0.55600
C100        C  0.36391546  0.42845217  0.07372132     0.78100
O101        O  0.30126289  0.44861564  0.02769856    -0.58000
O102        O  0.36874403  0.49896354  0.02606332    -0.56500
O103        O  0.32026215  0.44542431  0.14913798    -0.56400
O104        O  0.38021795  0.45716755  0.07605407    -0.55600
O105        O  0.48032335  0.85148210  0.43832043    -0.56800
C106        C  0.53048667  0.85911956  0.34692400     0.75800
O107        O  0.57963597  0.91771524  0.46470929    -0.58000
C108        C  0.48288256  0.86977938  0.46571690     0.75800
C109        C  0.54426996  0.82687667  0.47547703     0.78200
Cd110      Cd  0.53597734  0.87199009  0.43179531     1.37500
O111        O  0.50806801  0.85668721  0.36682471    -0.56800
O112        O  0.52450385  0.83400283  0.48501380    -0.55600
C113        C  0.58145402  0.93603951  0.43748478     0.78100
O114        O  0.56087005  0.84103089  0.44581797    -0.58000
O115        O  0.55439009  0.86571589  0.36678182    -0.56500
O116        O  0.50985676  0.88920586  0.47604872    -0.56400
O117        O  0.56313614  0.92444418  0.40861190    -0.55600
O118        O  0.48075308  0.62697606  0.57981158    -0.56800
C119        C  0.53453347  0.67482164  0.67287884     0.75800
O120        O  0.58580332  0.67104925  0.57347860    -0.58000
C121        C  0.48280478  0.62039373  0.54399272     0.75800
C122        C  0.54343320  0.72297910  0.55044462     0.78200
Cd123      Cd  0.53500936  0.66738114  0.58706365     1.37500
O124        O  0.51056819  0.65666203  0.65384636    -0.56800
O125        O  0.52422737  0.70904772  0.57791490    -0.55600
C126        C  0.57628657  0.64357622  0.58392966     0.78100
O127        O  0.55964546  0.71152616  0.54006209    -0.58000
O128        O  0.55836194  0.69014185  0.65196732    -0.56500
O129        O  0.50873867  0.63630289  0.52785486    -0.56400
O130        O  0.54873322  0.62856875  0.59520038    -0.55600
O131        O  0.47913838  0.85098275  0.07967661    -0.56800
C132        C  0.53336012  0.85943866  0.17344582     0.75800
O133        O  0.56359085  0.85224431  0.04255173    -0.58000
C134        C  0.48076443  0.85854779  0.04333159     0.75800
C135        C  0.57245546  0.93394105  0.08468941     0.78200
Cd136      Cd  0.53462776  0.86805222  0.08748521     1.37500
O137        O  0.50928301  0.85135578  0.15317614    -0.56800
O138        O  0.54606816  0.91981491  0.10002091    -0.55600
C139        C  0.54914755  0.82433610  0.05268879     0.78100
O140        O  0.58215735  0.91744962  0.06957972    -0.58000
O141        O  0.55801204  0.87045241  0.15368006    -0.56500
O142        O  0.50689250  0.86940196  0.02749202    -0.56400
O143        O  0.52904988  0.81724642  0.07943062    -0.55600
O144        O  0.51738354  0.66612233  0.86732572    -0.56800
C145        C  0.48559187  0.62558939  0.96404536     0.75800
O146        O  0.59450816  0.67284638  0.93582389    -0.58000
C147        C  0.54130829  0.67944704  0.84606471     0.75800
C148        C  0.55483355  0.72591510  0.97394778     0.78200
Cd149      Cd  0.54373703  0.67155977  0.93141937     1.37500
O150        O  0.49171111  0.62630950  0.92733205    -0.56800
O151        O  0.54872945  0.72270019  0.93707785    -0.55600
C152        C  0.58213985  0.64418049  0.94039732     0.78100
O153        O  0.55793107  0.70510404  0.99064857    -0.58000
O154        O  0.50571786  0.64699902  0.98496048    -0.56500
O155        O  0.56649826  0.69036602  0.86464179    -0.56400
O156        O  0.55331897  0.62975167  0.94224321    -0.55600
O157        O  0.86330347  0.33988608  0.85893165    -0.56800
C158        C  0.87176743  0.37220348  0.95873229     0.75800
O159        O  0.84929772  0.27109631  0.95912933    -0.58000
C160        C  0.86103051  0.31851098  0.83707995     0.75800
C161        C  0.93751236  0.33899728  0.93058616     0.78200
Cd162      Cd  0.87331522  0.32131196  0.92177941     1.37500
O163        O  0.87442299  0.37084072  0.92134341    -0.56800
O164        O  0.92211451  0.32404919  0.90069187    -0.55600
C165        C  0.82280925  0.26809266  0.95878262     0.78100
O166        O  0.92260132  0.34335461  0.95736262    -0.58000
O167        O  0.86997523  0.35006877  0.97880201    -0.56500
O168        O  0.86369947  0.29769602  0.85471766    -0.56400
O169        O  0.82018348  0.28831165  0.93976786    -0.55600
O170        O  0.62422450  0.14826188  0.07765094    -0.56800
C171        C  0.67310360  0.14360803  0.17227312     0.75800
O172        O  0.66072382  0.08341355  0.06974745    -0.58000
C173        C  0.61646259  0.13699385  0.04307234     0.75800
C174        C  0.71754391  0.17658290  0.04688490     0.78200
Cd175      Cd  0.66274567  0.13222770  0.08787184     1.37500
O176        O  0.65556364  0.15036688  0.15321841    -0.56800
O177        O  0.69896520  0.18314553  0.06294240    -0.55600
C178        C  0.63563838  0.06654908  0.08767812     0.78100
O179        O  0.71159886  0.14921339  0.05115133    -0.58000
O180        O  0.68690076  0.13327347  0.15179790    -0.56500
O181        O  0.63033418  0.12389030  0.02962982    -0.56400
O182        O  0.62378095  0.08027113  0.10495005    -0.55600
O183        O  0.85260833  0.34918327  0.64729483    -0.56800
C184        C  0.86094377  0.38707833  0.53747813     0.75800
O185        O  0.91605091  0.34261186  0.55803770    -0.58000
C186        C  0.85799826  0.33028064  0.66531366     0.75800
C187        C  0.82205897  0.28601543  0.54244527     0.78200
Cd188      Cd  0.86823996  0.34127314  0.58024400     1.37500
O189        O  0.85515913  0.38212854  0.57443818    -0.56800
O190        O  0.81757424  0.30730916  0.55358613    -0.55600
C191        C  0.93371372  0.36922275  0.57127865     0.78100
O192        O  0.84834383  0.28960181  0.54952856    -0.58000
O193        O  0.86954009  0.37037976  0.52037474    -0.56500
O194        O  0.86711035  0.31598791  0.64373763    -0.56400
O195        O  0.92096021  0.38195974  0.58874194    -0.55600
O196        O  0.65541306  0.14445559  0.36346706    -0.56800
C197        C  0.61597442  0.13333430  0.46693191     0.75800
O198        O  0.66296561  0.08509449  0.46260815    -0.58000
C199        C  0.67493060  0.14058103  0.34468075     0.75800
C200        C  0.72138158  0.18257387  0.46351765     0.78200
Cd201      Cd  0.66680410  0.13164901  0.42956667     1.37500
O202        O  0.62471265  0.14330450  0.43194671    -0.56800
O203        O  0.70055778  0.18518408  0.44619722    -0.55600
C204        C  0.64796381  0.06737228  0.43423309     0.78100
O205        O  0.71753158  0.15579803  0.46480137    -0.58000
O206        O  0.63052564  0.12219149  0.48433785    -0.56500
O207        O  0.69162648  0.13364922  0.36549055    -0.56400
O208        O  0.64240440  0.07957599  0.40479565    -0.55600
O209        O  0.48387389  0.14082765  0.85429295    -0.56800
C210        C  0.51574355  0.13357453  0.95498670     0.75800
O211        O  0.43842783  0.14451493  0.97147058    -0.58000
C212        C  0.45922593  0.13056922  0.83457965     0.75800
C213        C  0.41845433  0.05997882  0.93623958     0.78200
Cd214      Cd  0.45934658  0.12449751  0.92048153     1.37500
O215        O  0.50806917  0.12362553  0.91979869    -0.56800
O216        O  0.44679574  0.07345922  0.94332751    -0.55600
C217        C  0.45016143  0.17127310  0.95705949     0.78100
O218        O  0.40810754  0.07670162  0.92343670    -0.58000
O219        O  0.49813653  0.14063473  0.97290621    -0.56500
O220        O  0.43481879  0.11804613  0.85482655    -0.56400
O221        O  0.46504656  0.17601652  0.92501957    -0.55600
O222        O  0.51569399  0.37179528  0.07821533    -0.56800
C223        C  0.46669200  0.32458364  0.16303086     0.75800
O224        O  0.41123936  0.32707727  0.07714559    -0.58000
C225        C  0.51826518  0.37486026  0.04067941     0.75800
C226        C  0.45064174  0.27168999  0.04040141     0.78200
Cd227      Cd  0.46222001  0.32844987  0.07772996     1.37500
O228        O  0.49010355  0.33793155  0.14090146    -0.56800
O229        O  0.46284632  0.27960317  0.07444346    -0.55600
C230        C  0.42325061  0.35544737  0.07002267     0.78100
O231        O  0.44237640  0.28916156  0.02434866    -0.58000
O232        O  0.44104667  0.31208121  0.14539163    -0.56500
O233        O  0.49556318  0.35544913  0.02068381    -0.56400
O234        O  0.45189433  0.36973404  0.06542117    -0.55600
O235        O  0.48453076  0.14337531  0.64080834    -0.56800
C236        C  0.51236592  0.13240914  0.54320380     0.75800
O237        O  0.40656159  0.08386027  0.58147087    -0.58000
C238        C  0.46065724  0.13512671  0.66135837     0.75800
C239        C  0.45490419  0.18040284  0.54011247     0.78200
Cd240      Cd  0.45804076  0.12952384  0.57520622     1.37500
O241        O  0.50259008  0.12154860  0.57767961    -0.56800
O242        O  0.47527751  0.18352649  0.56472462    -0.55600
C243        C  0.41109034  0.06738731  0.55738339     0.78100
O244        O  0.43435129  0.15320970  0.53283186    -0.58000
O245        O  0.49694071  0.14182539  0.52409895    -0.56500
O246        O  0.43597037  0.12503629  0.64189466    -0.56400
O247        O  0.43658426  0.08026483  0.53962693    -0.55600
O248        O  0.49877399  0.35527106  0.35294986    -0.56800
C249        C  0.52820641  0.39134145  0.45428549     0.75800
O250        O  0.43224616  0.35038480  0.39876666    -0.58000
C251        C  0.47722536  0.33261268  0.33525627     0.75800
C252        C  0.46637628  0.28672376  0.45763242     0.78200
Cd253      Cd  0.47403791  0.34138307  0.41963158     1.37500
O254        O  0.51910227  0.39365143  0.41984343    -0.56800
O255        O  0.49157327  0.30667192  0.44273361    -0.55600
C256        C  0.42723214  0.35781748  0.43252655     0.78100
O257        O  0.44402987  0.29132143  0.45342980    -0.58000
O258        O  0.51241733  0.36601013  0.47192758    -0.56500
O259        O  0.45565176  0.31350167  0.35712656    -0.56400
O260        O  0.44320803  0.35669680  0.46092587    -0.55600
O261        O  0.62410576  0.47887502  0.92243106    -0.56800
C262        C  0.67753690  0.53441666  0.83638751     0.75800
O263        O  0.67048580  0.58222486  0.93723644    -0.58000
C264        C  0.61948952  0.47755232  0.95973083     0.75800
C265        C  0.71988312  0.53695927  0.96334809     0.78200
Cd266      Cd  0.66720069  0.53215651  0.92202094     1.37500
O267        O  0.65793463  0.51046680  0.85424941    -0.56800
O268        O  0.69984709  0.51265707  0.94695872    -0.55600
C269        C  0.64189103  0.57176654  0.93484665     0.78100
O270        O  0.71632564  0.55996365  0.95990898    -0.58000
O271        O  0.69317681  0.55729066  0.85834292    -0.56500
O272        O  0.63731453  0.50132145  0.97928244    -0.56400
O273        O  0.62590541  0.54375504  0.92665206    -0.55600
O274        O  0.86107371  0.47411248  0.06681570    -0.56800
C275        C  0.86116463  0.52698837  0.15516375     0.75800
O276        O  0.91983916  0.57066989  0.04171146    -0.58000
C277        C  0.86816445  0.47481497  0.03050470     0.75800
C278        C  0.82341280  0.53559916  0.03642657     0.78200
Cd279      Cd  0.87166824  0.52729734  0.07033036     1.37500
O280        O  0.85853491  0.50374359  0.13742514    -0.56800
O281        O  0.81891247  0.51120723  0.05324570    -0.55600
C282        C  0.93681113  0.56899743  0.06843404     0.78100
O283        O  0.85098445  0.55712017  0.03510072    -0.58000
O284        O  0.86734323  0.54989719  0.13324494    -0.56500
O285        O  0.87620116  0.49966169  0.01216901    -0.56400
O286        O  0.92336336  0.54887658  0.09505989    -0.55600
O287        O  0.66656989  0.51497248  0.64148009    -0.56800
C288        C  0.63068852  0.49026769  0.53633536     0.75800
O289        O  0.67312866  0.59220103  0.57132102    -0.58000
C290        C  0.68122479  0.53827579  0.66332507     0.75800
C291        C  0.73054172  0.56068736  0.53502290     0.78200
Cd292      Cd  0.67482908  0.54370090  0.57868911     1.37500
O293        O  0.64298348  0.48743256  0.56791512    -0.56800
O294        O  0.72707658  0.55213157  0.57109117    -0.55600
C295        C  0.64527832  0.57984350  0.58176692     0.78100
O296        O  0.70903022  0.56332994  0.51979419    -0.58000
O297        O  0.63977303  0.51730413  0.52474913    -0.56500
O298        O  0.69430255  0.56388665  0.64544978    -0.56400
O299        O  0.63240819  0.55181410  0.59058953    -0.55600
O300        O  0.85636415  0.48823013  0.41849703    -0.56800
C301        C  0.85911671  0.53678640  0.32731328     0.75800
O302        O  0.85563513  0.56916180  0.46230676    -0.58000
C303        C  0.85887828  0.48786755  0.45605190     0.75800
C304        C  0.93526123  0.57867640  0.41761308     0.78200
Cd305      Cd  0.86944439  0.54205496  0.41267869     1.37500
O306        O  0.85120613  0.51384558  0.34986934    -0.56800
O307        O  0.92082799  0.54994442  0.41514212    -0.55600
C308        C  0.82821071  0.55803306  0.45079004     0.78100
O309        O  0.91909145  0.59142483  0.41739655    -0.58000
O310        O  0.87052749  0.56244443  0.34444685    -0.56500
O311        O  0.86445427  0.51209249  0.47387703    -0.56400
O312        O  0.82039179  0.54057670  0.42088314    -0.55600
C313        C  0.78025064  0.56049882  0.45053193    -0.11300
C314        C  0.80591624  0.56401881  0.47157129     0.05700
C315        C  0.80833228  0.57063634  0.51270769    -0.06600
C316        C  0.78417029  0.57112434  0.53243774    -0.07300
C317        C  0.75762767  0.56567853  0.51185228    -0.01900
C318        C  0.75638084  0.56164225  0.47008567     0.05000
N319        N  0.73022428  0.55659002  0.44740387     0.67500
H320        H  0.77823900  0.55592022  0.41879213     0.16400
H321        H  0.78572395  0.57461828  0.56441912     0.16100
N322        N  0.83403415  0.57460104  0.53554365     0.75200
O323        O  0.73046209  0.57877423  0.42953170    -0.38300
O324        O  0.70999770  0.52965666  0.43874824    -0.38200
O325        O  0.85454258  0.60114322  0.54529353    -0.38900
O326        O  0.83347230  0.55170944  0.55176317    -0.39000
C327        C  0.85684479  0.55264507  0.21621914    -0.11300
C328        C  0.85798619  0.52787306  0.19918095     0.05700
C329        C  0.85770635  0.50539239  0.22482774    -0.06600
C330        C  0.85667164  0.50823976  0.26621084    -0.07300
C331        C  0.85667477  0.53353991  0.28325329    -0.01900
C332        C  0.85640658  0.55576623  0.25773292     0.05000
N333        N  0.85560364  0.58159507  0.27332557     0.67500
H334        H  0.85687731  0.57012396  0.19723850     0.16400
H335        H  0.85728098  0.49108376  0.28519619     0.16100
N336        N  0.86053561  0.48056324  0.20967737     0.75200
O337        O  0.88032094  0.60645757  0.27797462    -0.38300
O338        O  0.83053834  0.58148000  0.27411239    -0.38200
O339        O  0.88650696  0.48259992  0.20903173    -0.38900
O340        O  0.83684400  0.45488023  0.20464042    -0.39000
C341        C  0.66261369  0.50875412  0.77036151    -0.23300
C342        C  0.68106555  0.53541214  0.79224811     0.05700
C343        C  0.70113616  0.56248679  0.77119798    -0.06600
C344        C  0.70154433  0.56257138  0.72938275    -0.07300
C345        C  0.68228943  0.53613725  0.70752117    -0.01900
C346        C  0.66299433  0.50885334  0.72860715     0.05000
N347        N  0.64252572  0.48129833  0.70825716     0.67500
H348        H  0.64705781  0.48765391  0.78568528     0.16400
H349        H  0.71665092  0.58378091  0.71395453     0.16100
N350        N  0.72063677  0.59037413  0.79155699     0.75200
O351        O  0.65020607  0.46139572  0.70247830    -0.38300
O352        O  0.61508194  0.47452402  0.70276683    -0.38200
O353        O  0.74819876  0.59797234  0.79801096    -0.38900
O354        O  0.71226133  0.60992457  0.79561683    -0.39000
C355        C  0.77525779  0.56398228  0.98207690    -0.11300
C356        C  0.74600697  0.53804784  0.98498467     0.05700
C357        C  0.74231104  0.51246912  0.00674757    -0.06600
C358        C  0.76776814  0.51254890  0.02338665    -0.07300
C359        C  0.79736691  0.53789671  0.01927453    -0.01900
C360        C  0.80092405  0.56410120  0.99882361     0.05000
N361        N  0.83035257  0.59068345  0.99386240     0.67500
H362        H  0.77839577  0.58385125  0.96550333     0.16400
H363        H  0.76415835  0.49242951  0.03974240     0.16100
N364        N  0.71262584  0.48656555  0.01343831     0.75200
O365        O  0.84618941  0.59309084  0.96357643    -0.38300
O366        O  0.83772291  0.61386408  0.01510589    -0.38200
O367        O  0.70545398  0.46137902  0.99728468    -0.38900
O368        O  0.69587639  0.48746683  0.04062539    -0.39000
C369        C  0.59420431  0.47020302  0.47974269    -0.11300
C370        C  0.60627631  0.46403105  0.51415328     0.05700
C371        C  0.59332547  0.43347256  0.52746253    -0.06600
C372        C  0.56826111  0.41019245  0.50714531    -0.07300
C373        C  0.55563004  0.41660342  0.47348520    -0.01900
C374        C  0.56910568  0.44702864  0.45962033     0.05000
N375        N  0.55660148  0.45520642  0.42660111     0.67500
H376        H  0.60361526  0.49345282  0.46890634     0.16400
H377        H  0.55847131  0.38692709  0.51809808     0.16100
N378        N  0.60485084  0.42563852  0.56185115     0.75200
O379        O  0.53502953  0.46056496  0.43242378    -0.38300
O380        O  0.57088757  0.46298555  0.39391784    -0.38200
O381        O  0.59119728  0.42108908  0.59480033    -0.38900
O382        O  0.62466420  0.41759174  0.55766208    -0.39000
C383        C  0.43478655  0.23264943  0.48047365    -0.11300
C384        C  0.46331752  0.25966698  0.47913467     0.05700
C385        C  0.48847138  0.26051194  0.49893425    -0.06600
C386        C  0.48478618  0.23464996  0.51922011    -0.07300
C387        C  0.45647001  0.20737322  0.51997428    -0.01900
C388        C  0.43122269  0.20651407  0.50032020     0.05000
N389        N  0.40175048  0.17957513  0.50070962     0.67500
H390        H  0.41518560  0.23166000  0.46560848     0.16400
H391        H  0.50453132  0.23589698  0.53401061     0.16100
N392        N  0.51779122  0.28769097  0.49972008     0.75200
O393        O  0.38258525  0.17643364  0.52705448    -0.38300
O394        O  0.39286916  0.16242139  0.47059976    -0.38200
O395        O  0.52484854  0.30570048  0.52880635    -0.38900
O396        O  0.53840613  0.29046832  0.47601736    -0.39000
C397        C  0.54697223  0.40106038  0.97887200    -0.11300
C398        C  0.54565221  0.40014997  0.02076582     0.05700
C399        C  0.56961135  0.42432266  0.04223122    -0.06600
C400        C  0.59361475  0.44878718  0.02171995    -0.07300
C401        C  0.59449146  0.45006576  0.97982434    -0.01900
C402        C  0.57090305  0.42558180  0.95837957     0.05000
N403        N  0.57009247  0.42570385  0.91578789     0.67500
H404        H  0.52889561  0.38289534  0.96162849     0.16400
H405        H  0.61146843  0.46720456  0.03891138     0.16100
N406        N  0.56955540  0.42506052  0.08481814     0.75200
O407        O  0.57970145  0.41079853  0.89657527    -0.38300
O408        O  0.55464789  0.43559096  0.89801159    -0.38200
O409        O  0.58582972  0.41697310  0.10424694    -0.38900
O410        O  0.55853752  0.43944478  0.10226995    -0.39000
C411        C  0.49792435  0.34445384  0.22479055    -0.11300
C412        C  0.46948960  0.32459864  0.20713279     0.05700
C413        C  0.44429711  0.30629581  0.23212873    -0.06600
C414        C  0.44787252  0.30842864  0.27358839    -0.07300
C415        C  0.47601114  0.32906538  0.29126507    -0.01900
C416        C  0.50132229  0.34706957  0.26631100     0.05000
N417        N  0.53054020  0.36844429  0.28242988     0.67500
H418        H  0.51760206  0.35878998  0.20628075     0.16400
H419        H  0.42802225  0.29449957  0.29204021     0.16100
N420        N  0.41471168  0.28586122  0.21612534     0.75200
O421        O  0.55059237  0.36069664  0.28683979    -0.38300
O422        O  0.53829321  0.39633483  0.28424511    -0.38200
O423        O  0.40599463  0.25778319  0.21345107    -0.38900
O424        O  0.39537927  0.29463408  0.21246599    -0.39000
C425        C  0.48723780  0.14748953  0.76987184    -0.11300
C426        C  0.45916493  0.13286323  0.79031466     0.05700
C427        C  0.43176897  0.12042234  0.76786329    -0.06600
C428        C  0.43297250  0.12229205  0.72617041    -0.07300
C429        C  0.46101215  0.13616637  0.70568569    -0.01900
C430        C  0.48841650  0.14929504  0.72811779     0.05000
N431        N  0.51768855  0.16464686  0.70916735     0.67500
H432        H  0.50858300  0.15752407  0.78634213     0.16400
H433        H  0.41160497  0.11203598  0.70973135     0.16100
N434        N  0.40242304  0.10511038  0.78665374     0.75200
O435        O  0.53006673  0.19287558  0.70171498    -0.38300
O436        O  0.53345069  0.15164166  0.70709207    -0.38200
O437        O  0.38679648  0.11825703  0.78877866    -0.38900
O438        O  0.38984510  0.07682289  0.79381719    -0.39000
C439        C  0.44513668  0.19498914  0.01929953    -0.11300
C440        C  0.44771574  0.19593070  0.97755721     0.05700
C441        C  0.44958052  0.22120999  0.95671277    -0.06600
C442        C  0.44903346  0.24484760  0.97769998    -0.07300
C443        C  0.44764796  0.24447380  0.01954356    -0.01900
C444        C  0.44555084  0.21908244  0.04036760     0.05000
N445        N  0.44379523  0.21732542  0.08289940     0.67500
H446        H  0.44383214  0.17588052  0.03590060     0.16400
H447        H  0.45086959  0.26420002  0.96113160     0.16100
N448        N  0.45207425  0.22331874  0.91423847     0.75200
O449        O  0.41794038  0.20334079  0.09957189    -0.38300
O450        O  0.46754393  0.22408241  0.10297750    -0.38200
O451        O  0.42837190  0.21514021  0.89339567    -0.38900
O452        O  0.47809789  0.23882101  0.89834657    -0.39000
C453        C  0.54986941  0.14758177  0.48771837    -0.11300
C454        C  0.53996455  0.13380840  0.52538759     0.05700
C455        C  0.55614310  0.12106244  0.54428503    -0.06600
C456        C  0.58071830  0.12122676  0.52472628    -0.07300
C457        C  0.59015689  0.13436686  0.48662328    -0.01900
C458        C  0.57470630  0.14817222  0.46843563     0.05000
N459        N  0.58392799  0.16311253  0.43052602     0.67500
H460        H  0.53817663  0.15795537  0.47279461     0.16400
H461        H  0.59247160  0.11091390  0.53963756     0.16100
N462        N  0.54802490  0.10782017  0.58326755     0.75200
O463        O  0.57071804  0.14862212  0.39932745    -0.38300
O464        O  0.60036546  0.19183639  0.42900963    -0.38200
O465        O  0.53382187  0.07913344  0.58728845    -0.38900
O466        O  0.55980002  0.12447843  0.61344197    -0.39000
C467        C  0.86031613  0.43940665  0.45525487    -0.11300
C468        C  0.85691886  0.46104017  0.47732470     0.05700
C469        C  0.85363445  0.45738806  0.51916088    -0.06600
C470        C  0.85419424  0.43275620  0.53787348    -0.07300
C471        C  0.85841671  0.41156399  0.51588358    -0.01900
C472        C  0.86127286  0.41502587  0.47396000     0.05000
N473        N  0.86546563  0.39423962  0.44977136     0.67500
H474        H  0.86304263  0.44177953  0.42314910     0.16400
H475        H  0.85194575  0.43064976  0.57003902     0.16100
N476        N  0.84975295  0.47843044  0.54321709     0.75200
O477        O  0.84238117  0.37080757  0.43612961    -0.38300
O478        O  0.89166422  0.40217259  0.43602086    -0.38200
O479        O  0.82321785  0.47189791  0.55400021    -0.38900
O480        O  0.87273248  0.50011526  0.55994409    -0.39000
C481        C  0.77621387  0.26324849  0.49946512    -0.11300
C482        C  0.79768960  0.25918413  0.52124483     0.05700
C483        C  0.79480798  0.22992052  0.52252608    -0.06600
C484        C  0.77010259  0.20529651  0.50314451    -0.07300
C485        C  0.74825169  0.20933673  0.48185576    -0.01900
C486        C  0.75195081  0.23898875  0.47966040     0.05000
N487        N  0.73135821  0.24511804  0.45742846     0.67500
H488        H  0.77831006  0.28565391  0.49752242     0.16400
H489        H  0.76782893  0.18283841  0.50526816     0.16100
N490        N  0.81589067  0.22449292  0.54469994     0.75200
O491        O  0.71011526  0.24647622  0.47531471    -0.38300
O492        O  0.73812315  0.25519579  0.42219445    -0.38200
O493        O  0.80891013  0.21329128  0.57939534    -0.38900
O494        O  0.83823502  0.22511674  0.52703954    -0.39000
C495        C  0.58159290  0.12095050  0.98443306    -0.11300
C496        C  0.59210227  0.13822438  0.01954029     0.05700
C497        C  0.57848051  0.15541668  0.03163704    -0.06600
C498        C  0.55432087  0.15421669  0.00947032    -0.07300
C499        C  0.54322955  0.13622730  0.97503765    -0.01900
C500        C  0.55743940  0.11974895  0.96227356     0.05000
N501        N  0.54666063  0.10034630  0.92818419     0.67500
H502        H  0.59162712  0.10753222  0.97448982     0.16400
H503        H  0.54392829  0.16724834  0.01966245     0.16100
N504        N  0.58875841  0.17420253  0.06631753     0.75200
O505        O  0.56009023  0.11006545  0.89516107    -0.38300
O506        O  0.52853162  0.07208986  0.93293338    -0.38200
O507        O  0.60684616  0.20255323  0.06252179    -0.38900
O508        O  0.57535736  0.16369805  0.09918476    -0.39000
C509        C  0.66680722  0.16112107  0.28103925    -0.11300
C510        C  0.67742677  0.14355099  0.30068309     0.05700
C511        C  0.68818618  0.12758191  0.27763455    -0.06600
C512        C  0.68760825  0.12900795  0.23598889    -0.07300
C513        C  0.67625608  0.14589941  0.21629084    -0.01900
C514        C  0.66616906  0.16246511  0.23931340     0.05000
N515        N  0.65525845  0.18080916  0.22095026     0.67500
H516        H  0.65858138  0.17367377  0.29817202     0.16400
H517        H  0.69502411  0.11570886  0.21899298     0.16100
N518        N  0.69715384  0.10756627  0.29567318     0.75200
O519        O  0.62682153  0.17041523  0.21762207    -0.38300
O520        O  0.67344764  0.20898456  0.21563919    -0.38200
O521        O  0.68046345  0.07915009  0.29084301    -0.38900
O522        O  0.72448581  0.11812635  0.30695921    -0.39000
C523        C  0.86692987  0.42503250  0.03564802    -0.11300
C524        C  0.86790668  0.44824241  0.01130477     0.05700
C525        C  0.86996536  0.44607502  0.96955307    -0.06600
C526        C  0.87132102  0.42129618  0.95324489    -0.07300
C527        C  0.87064304  0.39820868  0.97763078    -0.01900
C528        C  0.86846814  0.40036743  0.01941404     0.05000
N529        N  0.86845899  0.37815368  0.04605233     0.67500
H530        H  0.86567436  0.42631454  0.06778134     0.16400
H531        H  0.87270889  0.42009646  0.92112370     0.16100
N532        N  0.87003520  0.46842042  0.94311445     0.75200
O533        O  0.89356321  0.38178683  0.05909521    -0.38300
O534        O  0.84377502  0.35864921  0.06237528    -0.38200
O535        O  0.89442452  0.48711723  0.92546519    -0.38900
O536        O  0.84494746  0.46594233  0.93207730    -0.39000
C537        C  0.85320467  0.34260069  0.77644297    -0.11300
C538        C  0.85653059  0.31883038  0.79321255     0.05700
C539        C  0.85724829  0.29720212  0.76739261    -0.06600
C540        C  0.85656236  0.30080952  0.72598397    -0.07300
C541        C  0.85486318  0.32550416  0.70923436    -0.01900
C542        C  0.85225343  0.34604872  0.73506097     0.05000
N543        N  0.85013452  0.37144480  0.71996060     0.67500
H544        H  0.85216433  0.35927975  0.79552265     0.16400
H545        H  0.85808246  0.28443958  0.70681214     0.16100
N546        N  0.85959256  0.27192419  0.78245635     0.75200
O547        O  0.82417680  0.36911395  0.71581304    -0.38300
O548        O  0.87387691  0.39746999  0.71811145    -0.38200
O549        O  0.83582833  0.24596338  0.78506458    -0.38900
O550        O  0.88556809  0.27411835  0.78533114    -0.39000
C551        C  0.76911546  0.19488922  0.01624440    -0.11300
C552        C  0.74444680  0.19967524  0.02401572     0.05700
C553        C  0.74576501  0.22659518  0.00938371    -0.06600
C554        C  0.77127560  0.24794698  0.98794030    -0.07300
C555        C  0.79617032  0.24353657  0.98055047    -0.01900
C556        C  0.79495851  0.21661462  0.99498469     0.05000
N557        N  0.81941318  0.21070745  0.98785015     0.67500
H558        H  0.76851984  0.17432993  0.02705858     0.16400
H559        H  0.77158958  0.26841545  0.97729641     0.16100
N560        N  0.72109005  0.23243624  0.01514062     0.75200
O561        O  0.83988444  0.21767512  0.01399450    -0.38300
O562        O  0.81743369  0.19362130  0.95937670    -0.38200
O563        O  0.72331393  0.25120081  0.04140659    -0.38900
O564        O  0.69998547  0.22338407  0.98950922    -0.39000
C565        C  0.58258605  0.59585911  0.95061365    -0.11300
C566        C  0.59932730  0.62737911  0.94255579     0.05700
C567        C  0.63104350  0.64099345  0.93484242    -0.06600
C568        C  0.64491640  0.62279123  0.93411888    -0.07300
C569        C  0.62764236  0.59102354  0.94036629    -0.01900
C570        C  0.59623642  0.57774683  0.94948217     0.05000
N571        N  0.57768567  0.54578838  0.95771261     0.67500
H572        H  0.55833576  0.58480396  0.95724976     0.16400
H573        H  0.66905511  0.63340429  0.92699991     0.16100
N574        N  0.64924205  0.67286459  0.92602520     0.75200
O575        O  0.57577431  0.53610275  0.99297487    -0.38300
O576        O  0.55907967  0.52843362  0.93169010    -0.38200
O577        O  0.66742773  0.69068930  0.95203426    -0.38900
O578        O  0.65153953  0.68202365  0.89041724    -0.39000
C579        C  0.58082143  0.98287541  0.11189912    -0.11300
C580        C  0.59035735  0.96786135  0.08550964     0.05700
C581        C  0.61587083  0.98563047  0.06070258    -0.06600
C582        C  0.63069931  0.01771999  0.06221499    -0.07300
C583        C  0.62060579  0.03263767  0.08815689    -0.01900
C584        C  0.59555268  0.01468443  0.11357520     0.05000
N585        N  0.58479183  0.02824156  0.14175313     0.67500
H586        H  0.56161572  0.96981800  0.13171695     0.16400
H587        H  0.64984942  0.03098186  0.04241765     0.16100
N588        N  0.62634535  0.97161641  0.03285421     0.75200
O589        O  0.56163371  0.03060338  0.13344951    -0.38300
O590        O  0.59434359  0.03197292  0.17725382    -0.38200
O591        O  0.61798448  0.96903419  0.99688732    -0.38900
O592        O  0.64814755  0.96731446  0.04230299    -0.39000
C593        C  0.54188812  0.77186637  0.05245721    -0.11300
C594        C  0.55443267  0.80073460  0.03404962     0.05700
C595        C  0.56967864  0.80542566  0.99712130    -0.06600
C596        C  0.57038584  0.78100161  0.97847374    -0.07300
C597        C  0.55688758  0.75197484  0.99638498    -0.01900
C598        C  0.54313681  0.74768828  0.03419332     0.05000
N599        N  0.52805893  0.71827596  0.05295467     0.67500
H600        H  0.53019113  0.76767265  0.08083368     0.16400
H601        H  0.58112183  0.78462932  0.94946547     0.16100
N602        N  0.58341699  0.83437998  0.97725210     0.75200
O603        O  0.54186989  0.71195605  0.07949024    -0.38300
O604        O  0.49955208  0.70120814  0.04864484    -0.38200
O605        O  0.61200158  0.85192615  0.97941373    -0.38900
O606        O  0.56822179  0.83966303  0.95163498    -0.39000
C607        C  0.58176324  0.59838143  0.59671785    -0.11300
C608        C  0.59538562  0.62879250  0.58344734     0.05700
C609        C  0.62610688  0.64344101  0.57026401    -0.06600
C610        C  0.64222175  0.62737760  0.57036436    -0.07300
C611        C  0.62825649  0.59676773  0.58331542    -0.01900
C612        C  0.59761825  0.58240766  0.59680316     0.05000
N613        N  0.58193650  0.55146506  0.61071979     0.67500
H614        H  0.55829503  0.58651976  0.60719627     0.16400
H615        H  0.66566668  0.63885953  0.55982731     0.16100
N616        N  0.64120604  0.67434224  0.55630821     0.75200
O617        O  0.58197883  0.54597172  0.64748506    -0.38300
O618        O  0.56336127  0.53058528  0.58792625    -0.38200
O619        O  0.65901292  0.69549702  0.57933924    -0.38900
O620        O  0.64156112  0.67972136  0.51944705    -0.39000
C621        C  0.56325844  0.69686622  0.73617598    -0.11300
C622        C  0.53522105  0.67760987  0.71717474     0.05700
C623        C  0.50893956  0.66062755  0.74114446    -0.06600
C624        C  0.51135681  0.66244640  0.78282913    -0.07300
C625        C  0.53959089  0.68085615  0.80180489    -0.01900
C626        C  0.56566462  0.69864355  0.77787742     0.05000
N627        N  0.59482526  0.71866668  0.79528632     0.67500
H628        H  0.58373320  0.71039388  0.71860453     0.16400
H629        H  0.49097344  0.64862127  0.80043820     0.16100
N630        N  0.47963884  0.64092600  0.72387898     0.75200
O631        O  0.61459433  0.71038889  0.79783335    -0.38300
O632        O  0.60265935  0.74625577  0.80125972    -0.38200
O633        O  0.47015107  0.61266913  0.72143426    -0.38900
O634        O  0.46109568  0.65054714  0.71881307    -0.39000
C635        C  0.61155292  0.98493289  0.40178807    -0.11300
C636        C  0.60314401  0.96934609  0.43834820     0.05700
C637        C  0.61367730  0.98628448  0.47396283    -0.06600
C638        C  0.62990290  0.01842744  0.47228233    -0.07300
C639        C  0.63612425  0.03395113  0.43550168    -0.01900
C640        C  0.62810200  0.01674392  0.40006093     0.05000
N641        N  0.63753461  0.03112042  0.36192143     0.67500
H642        H  0.60484007  0.97231212  0.37405302     0.16400
H643        H  0.63625965  0.03120177  0.49987293     0.16100
N644        N  0.60648688  0.97140023  0.51198508     0.75200
O645        O  0.66111187  0.03303260  0.34621447    -0.38300
O646        O  0.61861680  0.03402867  0.34025227    -0.38200
O647        O  0.62677709  0.96890372  0.53099994    -0.38900
O648        O  0.58208467  0.96579181  0.52941271    -0.39000
C649        C  0.55735164  0.86434557  0.28266651    -0.11300
C650        C  0.52981127  0.85599437  0.30268713     0.05700
C651        C  0.50311961  0.84703451  0.27968944    -0.06600
C652        C  0.50469266  0.84748806  0.23786804    -0.07300
C653        C  0.53250309  0.85691063  0.21785241    -0.01900
C654        C  0.55898850  0.86503848  0.24092973     0.05000
N655        N  0.58800576  0.87482675  0.22268777     0.67500
H656        H  0.57820718  0.87135312  0.29947705     0.16400
H657        H  0.48397390  0.84099185  0.22098631     0.16100
N658        N  0.47426709  0.83777293  0.29811868     0.75200
O659        O  0.60676732  0.90303417  0.21893946    -0.38300
O660        O  0.59714559  0.85591543  0.21814476    -0.38200
O661        O  0.46435803  0.85625838  0.29964150    -0.38900
O662        O  0.45637942  0.80984699  0.30561597    -0.39000
C663        C  0.56038558  0.78766646  0.47723303    -0.11300
C664        C  0.54687936  0.80246444  0.49675568     0.05700
C665        C  0.53401785  0.79199954  0.53496275    -0.06600
C666        C  0.53373912  0.76650872  0.55194934    -0.07300
C667        C  0.54621117  0.75097680  0.53184717    -0.01900
C668        C  0.55999818  0.76203657  0.49422003     0.05000
N669        N  0.57189239  0.74643340  0.47163429     0.67500
H670        H  0.57011882  0.79515127  0.44773880     0.16400
H671        H  0.52352367  0.75877460  0.58116671     0.16100
N672        N  0.52140673  0.80712323  0.55721280     0.75200
O673        O  0.55428246  0.72494003  0.44888022    -0.38300
O674        O  0.60047174  0.75785451  0.46838542    -0.38200
O675        O  0.49279473  0.79445278  0.56173001    -0.38900
O676        O  0.53880412  0.82975635  0.57853181    -0.39000
C677        C  0.36146802  0.37786942  0.08092938    -0.11300
C678        C  0.37781059  0.40875153  0.06911567     0.05700
C679        C  0.40795875  0.42078156  0.05474593    -0.06600
C680        C  0.42153952  0.40255539  0.05423640    -0.07300
C681        C  0.40588912  0.37210391  0.06777344    -0.01900
C682        C  0.37522396  0.35955246  0.08055315     0.05000
N683        N  0.35816691  0.32882349  0.09492786     0.67500
H684        H  0.33825908  0.36815820  0.09196086     0.16400
H685        H  0.44486600  0.41266041  0.04349305     0.16100
N686        N  0.42516987  0.45146743  0.04014784     0.75200
O687        O  0.35897585  0.32335857  0.13155893    -0.38300
O688        O  0.33797106  0.30849784  0.07299741    -0.38200
O689        O  0.44659645  0.47149773  0.06101515    -0.38900
O690        O  0.42285885  0.45707729  0.00396942    -0.39000
C691        C  0.41368524  0.54887157  0.98258718    -0.11300
C692        C  0.40635607  0.55211772  0.02198798     0.05700
C693        C  0.42376600  0.58073186  0.04074953    -0.06600
C694        C  0.44893710  0.60453829  0.02095037    -0.07300
C695        C  0.45706338  0.60075546  0.98221739    -0.01900
C696        C  0.43864806  0.57267507  0.96270793     0.05000
N697        N  0.44591487  0.56716111  0.92360927     0.67500
H698        H  0.40064466  0.52723661  0.96735243     0.16400
H699        H  0.46242069  0.62606308  0.03628143     0.16100
N700        N  0.41653206  0.58599597  0.07998889     0.75200
O701        O  0.46427747  0.55725400  0.91955323    -0.38300
O702        O  0.42972504  0.56640161  0.89436710    -0.38200
O703        O  0.43313802  0.58733832  0.10903836    -0.38900
O704        O  0.39722092  0.59467166  0.08443457    -0.39000
C705        C  0.02085338  0.36578980  0.90486294    -0.11300
C706        C  0.03621340  0.38744917  0.93489615     0.05700
C707        C  0.01880900  0.39010231  0.96588710    -0.06600
C708        C  0.98681964  0.37261323  0.96503861    -0.07300
C709        C  0.97130750  0.35256266  0.93345812    -0.01900
C710        C  0.98877892  0.34864234  0.90363882     0.05000
N711        N  0.97448077  0.32856675  0.87078660     0.67500
H712        H  0.03371142  0.36330630  0.88079480     0.16400
H713        H  0.97405600  0.37588162  0.98853213     0.16100
N714        N  0.03310184  0.41103309  0.99795850     0.75200
O715        O  0.97089161  0.33918003  0.83831224    -0.38300
O716        O  0.97137189  0.30219113  0.87155009    -0.38200
O717        O  0.03367405  0.43629240  0.99748120    -0.38900
O718        O  0.03908885  0.40176938  0.02994842    -0.39000
C719        C  0.20294355  0.44160053  0.01546236    -0.11300
C720        C  0.20550320  0.44586178  0.97389390     0.05700
C721        C  0.23278447  0.45130371  0.95506536    -0.06600
C722        C  0.25688124  0.45294489  0.97793355    -0.07300
C723        C  0.25478718  0.45001784  0.01966361    -0.01900
C724        C  0.22733296  0.44400181  0.03840306     0.05000
N725        N  0.22372580  0.44010073  0.08064297     0.67500
H726        H  0.18225217  0.43749164  0.03056698     0.16400
H727        H  0.27778910  0.45754958  0.96297042     0.16100
N728        N  0.23650318  0.45531626  0.91282877     0.75200
O729        O  0.22817119  0.46240636  0.10201928    -0.38300
O730        O  0.21015308  0.41347690  0.09529533    -0.38200
O731        O  0.25243057  0.48184806  0.89843246    -0.38900
O732        O  0.22920138  0.43243435  0.89101240    -0.39000
C733        C  0.40810235  0.38645407  0.47174252    -0.11300
C734        C  0.40517809  0.36877951  0.43811735     0.05700
C735        C  0.38285104  0.36409304  0.40912094    -0.06600
C736        C  0.36549987  0.37856015  0.41294408    -0.07300
C737        C  0.37008715  0.39810998  0.44501650    -0.01900
C738        C  0.39090613  0.40113615  0.47537961     0.05000
N739        N  0.39519771  0.41932489  0.50984347     0.67500
H740        H  0.42474652  0.38997896  0.49468006     0.16400
H741        H  0.34947284  0.37569277  0.38942883     0.16100
N742        N  0.37790792  0.34528997  0.37510631     0.75200
O743        O  0.37833016  0.40730144  0.53992704    -0.38300
O744        O  0.41920380  0.44500633  0.51314537    -0.38200
O745        O  0.35670182  0.31775817  0.37581684    -0.38900
O746        O  0.39025425  0.35752851  0.34227912    -0.39000
C747        C  0.43316092  0.56270739  0.46461763    -0.11300
C748        C  0.40581510  0.54447856  0.48560019     0.05700
C749        C  0.40379464  0.55219376  0.52552230    -0.06600
C750        C  0.42882093  0.57729065  0.54342926    -0.07300
C751        C  0.45641647  0.59505728  0.52273641    -0.01900
C752        C  0.45833804  0.58750573  0.48270689     0.05000
N753        N  0.48591114  0.60409312  0.46017214     0.67500
H754        H  0.43545877  0.55723163  0.43408831     0.16400
H755        H  0.42671837  0.58248455  0.57416792     0.16100
N756        N  0.37687350  0.53442428  0.54884103     0.75200
O757        O  0.50578475  0.59589744  0.46150688    -0.38300
O758        O  0.48760203  0.62253521  0.43336815    -0.38200
O759        O  0.37618523  0.51514131  0.57357360    -0.38900
O760        O  0.35675627  0.54225410  0.55060837    -0.39000
C761        C  0.35175898  0.49321858  0.27848422    -0.11300
C762        C  0.33194014  0.46563566  0.29814397     0.05700
C763        C  0.31234420  0.43989196  0.27483992    -0.06600
C764        C  0.31327272  0.44208695  0.23314163    -0.07300
C765        C  0.33355216  0.46947134  0.21344337    -0.01900
C766        C  0.35282848  0.49533544  0.23671758     0.05000
N767        N  0.37441255  0.52369769  0.21860948     0.67500
H768        H  0.36705342  0.51328095  0.29557935     0.16400
H769        H  0.29817694  0.42191852  0.21608693     0.16100
N770        N  0.29153392  0.41114640  0.29280912     0.75200
O771        O  0.36768071  0.54446398  0.21415110    -0.38300
O772        O  0.40178549  0.52998390  0.21415596    -0.38200
O773        O  0.26362346  0.40327283  0.29595907    -0.38900
O774        O  0.29969967  0.39149827  0.29813033    -0.39000
C775        C  0.01756520  0.43053956  0.56885734    -0.11300
C776        C  0.03213395  0.41326361  0.56403244     0.05700
C777        C  0.01387660  0.38124077  0.55990381    -0.06600
C778        C  0.98181773  0.36732157  0.56115401    -0.07300
C779        C  0.96744918  0.38469189  0.56714442    -0.01900
C780        C  0.98577213  0.41672502  0.57061760     0.05000
N781        N  0.97256286  0.43577373  0.57571693     0.67500
H782        H  0.03092286  0.45517081  0.57173211     0.16400
H783        H  0.96815586  0.34268630  0.55866105     0.16100
N784        N  0.02737026  0.36238032  0.55599089     0.75200
O785        O  0.96614679  0.44647790  0.54543566    -0.38300
O786        O  0.97303196  0.44661322  0.60966824    -0.38200
O787        O  0.03121508  0.35001920  0.58662137    -0.38900
O788        O  0.02993698  0.35352880  0.52187999    -0.39000
C789        C  0.14779146  0.48935102  0.72128043    -0.11300
C790        C  0.14130665  0.46303708  0.69976968     0.05700
C791        C  0.13567471  0.43650905  0.72113173    -0.06600
C792        C  0.13600506  0.43662953  0.76293206    -0.07300
C793        C  0.14174575  0.46273168  0.78452600    -0.01900
C794        C  0.14797540  0.48944603  0.76307504     0.05000
N795        N  0.15398583  0.51677991  0.78303651     0.67500
H796        H  0.15213584  0.50998102  0.70559293     0.16400
H797        H  0.13132999  0.41587089  0.77854236     0.16100
N798        N  0.12981296  0.40927157  0.70100097     0.75200
O799        O  0.18125195  0.53668014  0.79098791    -0.38300
O800        O  0.13322794  0.52372712  0.78503786    -0.38200
O801        O  0.15136728  0.40377113  0.69596506    -0.38900
O802        O  0.10254736  0.38830402  0.69546216    -0.39000
C803        C  0.20183636  0.44990953  0.47278998    -0.11300
C804        C  0.19789751  0.44561101  0.51418320     0.05700
C805        C  0.21801211  0.43935494  0.53625804    -0.06600
C806        C  0.24228884  0.43876914  0.51707957    -0.07300
C807        C  0.24750827  0.44510758  0.47613138    -0.01900
C808        C  0.22657310  0.45006271  0.45370399     0.05000
N809        N  0.23029909  0.45571961  0.41170495     0.67500
H810        H  0.18649255  0.45464221  0.45540064     0.16400
H811        H  0.25797624  0.43474419  0.53478283     0.16100
N812        N  0.21426000  0.43379215  0.57825370     0.75200
O813        O  0.21720776  0.43363097  0.38787431    -0.38300
O814        O  0.24131271  0.48268856  0.39868063    -0.38200
O815        O  0.19985969  0.40664496  0.59108384    -0.38900
O816        O  0.23024944  0.45518512  0.60206738    -0.39000
C817        C  0.98609882  0.58889083  0.10427156    -0.11300
C818        C  0.97058817  0.58873275  0.06929851     0.05700
C819        C  0.98784855  0.60613859  0.03615384    -0.06600
C820        C  0.01993996  0.62205171  0.03803050    -0.07300
C821        C  0.03533297  0.62089692  0.07243506    -0.01900
C822        C  0.01800885  0.60478244  0.10621788     0.05000
N823        N  0.03237586  0.60454263  0.14297528     0.67500
H824        H  0.97339027  0.57633875  0.13047840     0.16400
H825        H  0.03284411  0.63434790  0.01181309     0.16100
N826        N  0.97334749  0.60672709  0.99975225     0.75200
O827        O  0.03986307  0.62598373  0.16747190    -0.38300
O828        O  0.03218690  0.58052816  0.15407508    -0.38200
O829        O  0.97114528  0.62989623  0.99108197    -0.38900
O830        O  0.96821151  0.58709486  0.97329545    -0.39000
C831        C  0.12878420  0.55282665  0.95009156    -0.11300
C832        C  0.14129949  0.53700668  0.96989638     0.05700
C833        C  0.15356538  0.54650586  0.00857064    -0.06600
C834        C  0.15252614  0.57085691  0.02666995    -0.07300
C835        C  0.13929957  0.58617953  0.00726223    -0.01900
C836        C  0.12773869  0.57716635  0.96818416     0.05000
N837        N  0.11482664  0.59236560  0.94626001     0.67500
H838        H  0.11946600  0.54617096  0.92030130     0.16400
H839        H  0.16160911  0.57733290  0.05659017     0.16100
N840        N  0.16619241  0.53108991  0.03062167     0.75200
O841        O  0.13194011  0.61513989  0.92468949    -0.38300
O842        O  0.08616679  0.57956956  0.94212633    -0.38200
O843        O  0.19485298  0.54329678  0.03409090    -0.38900
O844        O  0.14897504  0.50862773  0.05258828    -0.39000
C845        C  0.39386453  0.97722367  0.95891353    -0.11300
C846        C  0.36765660  0.96176087  0.93507561     0.05700
C847        C  0.35610713  0.97872570  0.91544775    -0.06600
C848        C  0.37178461  0.01073475  0.91851154    -0.07300
C849        C  0.39917433  0.02629765  0.94036878    -0.01900
C850        C  0.40958311  0.00903517  0.96178575     0.05000
N851        N  0.43647802  0.02339943  0.98602093     0.67500
H852        H  0.40275720  0.96455017  0.97482432     0.16400
H853        H  0.36356254  0.02352353  0.90151208     0.16100
N854        N  0.33037166  0.96424092  0.88925948     0.75200
O855        O  0.43425625  0.02909456  0.02202973    -0.38300
O856        O  0.46071533  0.02450479  0.97412108    -0.38200
O857        O  0.30550708  0.96281056  0.89873982    -0.38900
O858        O  0.33424878  0.95851120  0.85389201    -0.39000
C859        C  0.40205210  0.84697800  0.01578565    -0.11300
C860        C  0.40620468  0.85574143  0.97537755     0.05700
C861        C  0.43445017  0.86364739  0.95717435    -0.06600
C862        C  0.45791751  0.86360278  0.97965361    -0.07300
C863        C  0.45413107  0.85577997  0.02039217    -0.01900
C864        C  0.42551354  0.84688759  0.03827590     0.05000
N865        N  0.42000740  0.83852353  0.07947571     0.67500
H866        H  0.38054523  0.84062198  0.03042571     0.16400
H867        H  0.47954597  0.87038002  0.96508477     0.16100
N868        N  0.44029279  0.87302565  0.91633360     0.75200
O869        O  0.42538167  0.85876262  0.10511713    -0.38300
O870        O  0.40411477  0.81069197  0.08907986    -0.38200
O871        O  0.45495437  0.90114103  0.90779466    -0.38900
O872        O  0.43632647  0.85370111  0.88994974    -0.39000
C873        C  0.21974293  0.73326239  0.97769841    -0.11300
C874        C  0.20172525  0.73862376  0.00450373     0.05700
C875        C  0.20752730  0.76872448  0.00959472    -0.06600
C876        C  0.23219458  0.79295368  0.98961053    -0.07300
C877        C  0.25103646  0.78771329  0.96387609    -0.01900
C878        C  0.24395738  0.75725266  0.95717792     0.05000
N879        N  0.26161912  0.75015302  0.93068913     0.67500
H880        H  0.21523982  0.71016849  0.97291677     0.16400
H881        H  0.23695307  0.81605503  0.99494392     0.16100
N882        N  0.18980030  0.77530704  0.03661832     0.75200
O883        O  0.28304083  0.74673241  0.94447209    -0.38300
O884        O  0.25181733  0.74104902  0.89589987    -0.38200
O885        O  0.19972601  0.78432297  0.07138483    -0.38900
O886        O  0.16764794  0.77779685  0.02354703    -0.39000
C887        C  0.98522371  0.62778385  0.41319363    -0.11300
C888        C  0.96915750  0.59604643  0.42003791     0.05700
C889        C  0.98595208  0.58102318  0.42760564    -0.06600
C890        C  0.01781252  0.59742356  0.42686648    -0.07300
C891        C  0.03402964  0.62891816  0.41881944    -0.01900
C892        C  0.01740164  0.64429196  0.41242403     0.05000
N893        N  0.03259793  0.67628644  0.40379257     0.67500
H894        H  0.97278949  0.63976170  0.40731709     0.16400
H895        H  0.02992374  0.58509396  0.43257396     0.16100
N896        N  0.97113878  0.54903579  0.43636422     0.75200
O897        O  0.03810623  0.68529349  0.36800836    -0.38300
O898        O  0.03451361  0.69463919  0.43048311    -0.38200
O899        O  0.97025842  0.53078556  0.41020209    -0.38900
O900        O  0.96430987  0.53994725  0.47197044    -0.39000
C901        C  0.14812037  0.59773834  0.50993424    -0.11300
C902        C  0.14730361  0.59816867  0.46804617     0.05700
C903        C  0.14830618  0.57452390  0.44704119    -0.06600
C904        C  0.14869948  0.55060798  0.46806961    -0.07300
C905        C  0.14819092  0.54954288  0.51001042    -0.01900
C906        C  0.14855721  0.57390030  0.53092249     0.05000
N907        N  0.14779336  0.57416218  0.57348935     0.67500
H908        H  0.14761117  0.61569095  0.52682775     0.16400
H909        H  0.14862616  0.53231622  0.45128354     0.16100
N910        N  0.14784911  0.57374107  0.40444179     0.75200
O911        O  0.17237442  0.58964327  0.59262493    -0.38300
O912        O  0.12250348  0.56444949  0.59107873    -0.38200
O913        O  0.17253157  0.58280424  0.38558314    -0.38900
O914        O  0.12265131  0.55882396  0.38638963    -0.39000
C915        C  0.16220550  0.66362857  0.26392492    -0.11300
C916        C  0.14746948  0.67787651  0.28186198     0.05700
C917        C  0.13572403  0.69239233  0.25710892    -0.06600
C918        C  0.13806321  0.69154051  0.21562615    -0.07300
C919        C  0.15143856  0.67599740  0.19768954    -0.01900
C920        C  0.16425680  0.66253662  0.22237961     0.05000
N921        N  0.17933673  0.64755999  0.20591291     0.67500
H922        H  0.17181833  0.65271187  0.28221642     0.16400
H923        H  0.12787879  0.70190414  0.19733540     0.16100
N924        N  0.11985768  0.70668795  0.27324782     0.75200
O925        O  0.20752661  0.66294010  0.19797772    -0.38300
O926        O  0.16629922  0.61877228  0.20690401    -0.38200
O927        O  0.13268305  0.73546337  0.27340569    -0.38900
O928        O  0.09138374  0.69095593  0.27916448    -0.39000
C929        C  0.37348871  0.98512907  0.52247560    -0.11300
C930        C  0.35474341  0.96964961  0.55532540     0.05700
C931        C  0.35100996  0.98698984  0.58541008    -0.06600
C932        C  0.36799497  0.01896974  0.58388006    -0.07300
C933        C  0.38886804  0.03432900  0.55288246    -0.01900
C934        C  0.39046647  0.01709130  0.52100009     0.05000
N935        N  0.40967914  0.03157328  0.48727426     0.67500
H936        H  0.37625036  0.97241049  0.49853303     0.16400
H937        H  0.36602539  0.03175676  0.60838868     0.16100
N938        N  0.33117930  0.97265311  0.61866679     0.75200
O939        O  0.43497556  0.03229747  0.48451637    -0.38300
O940        O  0.39864831  0.03751700  0.45693766    -0.38200
O941        O  0.34248317  0.97283849  0.65238436    -0.38900
O942        O  0.30343176  0.96555063  0.61618982    -0.39000
C943        C  0.46102942  0.88558961  0.52058000    -0.11300
C944        C  0.45615921  0.86864326  0.48553888     0.05700
C945        C  0.42601947  0.85086791  0.47094853    -0.06600
C946        C  0.40175809  0.85095320  0.49085274    -0.07300
C947        C  0.40674391  0.86838335  0.52541822    -0.01900
C948        C  0.43673574  0.88541157  0.54070950     0.05000
N949        N  0.44288929  0.90192265  0.57720983     0.67500
H950        H  0.48386812  0.89886267  0.53289717     0.16400
H951        H  0.37891064  0.83774463  0.47853624     0.16100
N952        N  0.41961377  0.83317342  0.43549206     0.75200
O953        O  0.44059840  0.88835630  0.60986153    -0.38300
O954        O  0.45609116  0.93072058  0.57639081    -0.38200
O955        O  0.41004565  0.80489121  0.43820883    -0.38900
O956        O  0.41782534  0.84437577  0.40251335    -0.39000
C957        C  0.30805934  0.86981376  0.72221876    -0.11300
C958        C  0.32515179  0.85989493  0.70047530     0.05700
C959        C  0.34257237  0.84946153  0.72143620    -0.06600
C960        C  0.34306085  0.84978932  0.76317713    -0.07300
C961        C  0.32663513  0.86054378  0.78489617    -0.01900
C962        C  0.30881021  0.87048873  0.76385260     0.05000
N963        N  0.29216180  0.88242237  0.78399042     0.67500
H964        H  0.29471603  0.87817520  0.70683717     0.16400
H965        H  0.35672838  0.84183929  0.77861085     0.16100
N966        N  0.35996983  0.83851697  0.70099872     0.75200
O967        O  0.30472706  0.91081286  0.78984079    -0.38300
O968        O  0.26354821  0.86598621  0.78792680    -0.38200
O969        O  0.38866180  0.85523407  0.69859018    -0.38900
O970        O  0.34771325  0.81048724  0.69282006    -0.39000
C971        C  0.22201380  0.77580440  0.45111470    -0.11300
C972        C  0.20067227  0.75047650  0.47333408     0.05700
C973        C  0.20325853  0.75111085  0.51529282    -0.06600
C974        C  0.22722113  0.77658060  0.53401023    -0.07300
C975        C  0.24887009  0.80180920  0.51176539    -0.01900
C976        C  0.24590190  0.80133429  0.46979687     0.05000
N977        N  0.26774652  0.82582559  0.44544432     0.67500
H978        H  0.22046369  0.77561801  0.41884309     0.16400
H979        H  0.22915269  0.77632308  0.56620803     0.16100
N980        N  0.18294680  0.72537498  0.53919497     0.75200
O981        O  0.29191343  0.82615261  0.43499213    -0.38300
O982        O  0.26032659  0.84354225  0.42843855    -0.38200
O983        O  0.19109361  0.70665009  0.55062125    -0.38900
O984        O  0.15989859  0.72460929  0.55493742    -0.39000
loop_ 
_geom_bond_atom_site_label_1 
_geom_bond_atom_site_label_2 
_geom_bond_distance 
_geom_bond_site_symmetry_2 
_ccdc_geom_bond_type 
O1            C4   1.265       .  A
O1           Cd6   2.464       .  S
C2           O11   1.267       .  A
C2            O7   1.266       .  A
C2          C958   1.481       .  S
O3            C9   1.263       .  A
O3           Cd6   2.483       .  S
C4           O12   1.264       .  A
C4          C947   1.479       .  S
C5           O10   1.265       .  A
C5            O8   1.264       .  A
C5          C975   1.483       .  S
Cd6          O13   2.466       .  S
Cd6          O12   2.442       .  S
Cd6          O11   2.435       .  S
Cd6           O7   2.462       .  S
Cd6          O10   2.475       .  S
Cd6           O8   2.458       .  S
C9           O13   1.264       .  A
C9          C930   1.486       .  S
O14          C17   1.266       .  A
O14         Cd19   2.491       .  S
C15          O24   1.266       .  A
C15          O20   1.266       .  A
C15         C916   1.486       .  S
O16          C22   1.266       .  A
O16         Cd19   2.524       .  S
C17          O25   1.265       .  A
C17         C902   1.488       .  S
C18          O23   1.264       .  A
C18          O21   1.265       .  A
C18         C972   1.479       .  S
Cd19         O26   2.412       .  S
Cd19         O25   2.450       .  S
Cd19         O24   2.471       .  S
Cd19         O20   2.452       .  S
Cd19         O23   2.477       .  S
Cd19         O21   2.460       .  S
C22          O26   1.262       .  A
C22         C891   1.485       .  S
O27          C30   1.266       .  A
O27         Cd32   2.464       .  S
C28          O37   1.267       .  A
C28          O33   1.268       .  A
C28         C860   1.489       .  S
O29          C35   1.266       .  A
O29         Cd32   2.510       .  S
C30          O38   1.263       .  A
C30         C961   1.482       .  S
C31          O36   1.267       .  A
C31          O34   1.263       .  A
C31         C877   1.485       .  S
Cd32         O39   2.429       .  S
Cd32         O38   2.446       .  S
Cd32         O37   2.455       .  S
Cd32         O33   2.479       .  S
Cd32         O36   2.478       .  S
Cd32         O34   2.449       .  S
C35          O39   1.262       .  A
C35         C846   1.480       .  S
O40          C43   1.267       .  A
O40         Cd45   2.482       .  S
C41          O50   1.265       .  A
C41          O46   1.268       .  A
C41         C835   1.486       .  S
O42          C48   1.268       .  A
O42         Cd45   2.481       .  S
C43          O51   1.265       .  A
C43         C919   1.484       .  S
C44          O49   1.266       .  A
C44          O47   1.263       .  A
C44         C874   1.477       .  S
Cd45         O52   2.434       .  S
Cd45         O51   2.441       .  S
Cd45         O50   2.458       .  S
Cd45         O46   2.462       .  S
Cd45         O49   2.498       .  S
Cd45         O47   2.422       .  S
C48          O52   1.263       .  A
C48         C821   1.481       .  S
O53          C56   1.268       .  A
O53         Cd58   2.462       .  S
C54          O63   1.267       .  A
C54          O59   1.265       .  A
C54         C905   1.489       .  S
O55          C61   1.266       .  A
O55         Cd58   2.477       .  S
C56          O64   1.266       .  A
C56         C790   1.487       .  S
C57          O62   1.267       .  A
C57          O60   1.262       .  A
C57         C776   1.485       .  S
Cd58         O65   2.455       .  S
Cd58         O64   2.467       .  S
Cd58         O63   2.487       .  S
Cd58         O59   2.465       .  S
Cd58         O62   2.514       .  S
Cd58         O60   2.410       .  S
C61          O65   1.264       .  A
C61         C804   1.477       .  S
O66          C69   1.268       .  A
O66         Cd71   2.468       .  S
C67          O76   1.264       .  A
C67          O72   1.268       .  A
C67         C762   1.490       .  S
O68          C74   1.264       .  A
O68         Cd71   2.476       .  S
C69          O77   1.266       .  A
C69         C748   1.491       .  S
C70          O75   1.266       .  A
C70          O73   1.263       .  A
C70         C807   1.480       .  S
Cd71         O78   2.480       .  S
Cd71         O77   2.477       .  S
Cd71         O76   2.461       .  S
Cd71         O72   2.482       .  S
Cd71         O75   2.471       .  S
Cd71         O73   2.464       .  S
C74          O78   1.262       .  A
C74         C737   1.483       .  S
O79          C82   1.266       .  A
O79         Cd84   2.485       .  S
C80          O89   1.264       .  A
C80          O85   1.267       .  A
C80         C832   1.485       .  S
O81          C87   1.262       .  A
O81         Cd84   2.472       .  S
C82          O90   1.266       .  A
C82         C793   1.490       .  S
C83          O88   1.265       .  A
C83          O86   1.265       .  A
C83         C720   1.484       .  S
Cd84         O91   2.492       .  S
Cd84         O90   2.466       .  S
Cd84         O89   2.462       .  S
Cd84         O85   2.459       .  S
Cd84         O88   2.467       .  S
Cd84         O86   2.481       .  S
C87          O91   1.265       .  A
C87         C706   1.486       .  S
O92          C95   1.267       .  A
O92         Cd97   2.486       .  S
C93         O102   1.264       .  A
C93          O98   1.267       .  A
C93         C692   1.488       .  S
O94         C100   1.266       .  A
O94         Cd97   2.501       .  S
C95         O103   1.267       .  A
C95         C765   1.490       .  S
C96         O101   1.262       .  A
C96          O99   1.265       .  A
C96         C723   1.482       .  S
Cd97        O104   2.449       .  S
Cd97        O103   2.462       .  S
Cd97        O102   2.438       .  S
Cd97         O98   2.500       .  S
Cd97        O101   2.466       .  S
Cd97         O99   2.497       .  S
C100        O104   1.263       .  A
C100        C678   1.485       .  S
O105        C108   1.268       .  A
O105       Cd110   2.469       .  S
C106        O115   1.266       .  A
C106        O111   1.267       .  A
C106        C650   1.491       .  S
O107        C113   1.266       .  A
O107       Cd110   2.517       .  S
C108        O116   1.265       .  A
C108        C944   1.481       .  S
C109        O114   1.265       .  A
C109        O112   1.261       .  A
C109        C664   1.482       .  S
Cd110       O117   2.419       .  S
Cd110       O116   2.424       .  S
Cd110       O115   2.457       .  S
Cd110       O111   2.497       .  S
Cd110       O114   2.488       .  S
Cd110       O112   2.460       .  S
C113        O117   1.262       .  A
C113        C636   1.480       .  S
O118        C121   1.267       .  A
O118       Cd123   2.476       .  S
C119        O128   1.267       .  A
C119        O124   1.266       .  A
C119        C622   1.492       .  S
O120        C126   1.268       .  A
O120       Cd123   2.518       .  S
C121        O129   1.264       .  A
C121        C751   1.490       .  S
C122        O127   1.266       .  A
C122        O125   1.264       .  A
C122        C667   1.483       .  S
Cd123       O130   2.397       .  S
Cd123       O129   2.471       .  S
Cd123       O128   2.471       .  S
Cd123       O124   2.483       .  S
Cd123       O127   2.489       .  S
Cd123       O125   2.440       .  S
C126        O130   1.263       .  A
C126        C608   1.485       .  S
O131        C134   1.265       .  A
O131       Cd136   2.496       .  S
C132        O141   1.267       .  A
C132        O137   1.267       .  A
C132        C653   1.492       .  S
O133        C139   1.266       .  A
O133       Cd136   2.499       .  S
C134        O142   1.264       .  A
C134        C863   1.490       .  S
C135        O140   1.268       .  A
C135        O138   1.263       .  A
C135        C580   1.485       .  S
Cd136       O143   2.455       .  S
Cd136       O142   2.465       .  S
Cd136       O141   2.484       .  S
Cd136       O137   2.473       .  S
Cd136       O140   2.519       .  S
Cd136       O138   2.420       .  S
C139        O143   1.265       .  A
C139        C594   1.488       .  S
O144        C147   1.267       .  A
O144       Cd149   2.466       .  S
C145        O154   1.265       .  A
C145        O150   1.266       .  A
C145        C695   1.486       .  S
O146        C152   1.267       .  A
O146       Cd149   2.533       .  S
C147        O155   1.267       .  A
C147        C625   1.489       .  S
C148        O153   1.264       .  A
C148        O151   1.265       .  A
C148        C597   1.479       .  S
Cd149       O156   2.416       .  S
Cd149       O155   2.477       .  S
Cd149       O154   2.461       .  S
Cd149       O150   2.477       .  S
Cd149       O153   2.481       .  S
Cd149       O151   2.476       .  S
C152        O156   1.261       .  A
C152        C566   1.487       .  S
O157        C160   1.266       .  A
O157       Cd162   2.452       .  S
C158        O167   1.265       .  A
C158        O163   1.267       .  A
C158        C527   1.489       .  S
O159        C165   1.267       .  A
O159       Cd162   2.523       .  S
C160        O168   1.267       .  A
C160        C538   1.489       .  S
C161        O166   1.263       .  A
C161        O164   1.264       .  A
C161        C709   1.489       .  S
Cd162       O169   2.420       .  S
Cd162       O168   2.483       .  S
Cd162       O167   2.467       .  S
Cd162       O163   2.475       .  S
Cd162       O166   2.464       .  S
Cd162       O164   2.500       .  S
C165        O169   1.262       .  A
C165        C555   1.485       .  S
O170        C173   1.267       .  A
O170       Cd175   2.472       .  S
C171        O180   1.265       .  A
C171        O176   1.266       .  A
C171        C513   1.483       .  S
O172        C178   1.269       .  A
O172       Cd175   2.497       .  S
C173        O181   1.265       .  A
C173        C496   1.484       .  S
C174        O179   1.267       .  A
C174        O177   1.263       .  A
C174        C552   1.484       .  S
Cd175       O182   2.431       .  S
Cd175       O181   2.441       .  S
Cd175       O180   2.449       .  S
Cd175       O176   2.478       .  S
Cd175       O179   2.494       .  S
Cd175       O177   2.437       .  S
C178        O182   1.264       .  A
C178        C583   1.487       .  S
O183        C186   1.265       .  A
O183       Cd188   2.486       .  S
C184        O193   1.266       .  A
C184        O189   1.269       .  A
C184        C471   1.488       .  S
O185        C191   1.267       .  A
O185       Cd188   2.495       .  S
C186        O194   1.264       .  A
C186        C541   1.487       .  S
C187        O192   1.267       .  A
C187        O190   1.264       .  A
C187        C482   1.482       .  S
Cd188       O195   2.432       .  S
Cd188       O194   2.461       .  S
Cd188       O193   2.461       .  S
Cd188       O189   2.468       .  S
Cd188       O192   2.509       .  S
Cd188       O190   2.428       .  S
C191        O195   1.262       .  A
C191        C779   1.482       .  S
O196        C199   1.267       .  A
O196       Cd201   2.450       .  S
C197        O206   1.265       .  A
C197        O202   1.264       .  A
C197        C457   1.487       .  S
O198        C204   1.268       .  A
O198       Cd201   2.511       .  S
C199        O207   1.267       .  A
C199        C510   1.481       .  S
C200        O205   1.267       .  A
C200        O203   1.261       .  A
C200        C485   1.489       .  S
Cd201       O208   2.432       .  S
Cd201       O207   2.467       .  S
Cd201       O206   2.468       .  S
Cd201       O202   2.472       .  S
Cd201       O205   2.511       .  S
Cd201       O203   2.436       .  S
C204        O208   1.263       .  A
C204        C639   1.484       .  S
O209        C212   1.267       .  A
O209       Cd214   2.472       .  S
C210        O219   1.266       .  A
C210        O215   1.267       .  A
C210        C499   1.483       .  S
O211        C217   1.267       .  A
O211       Cd214   2.483       .  S
C212        O220   1.265       .  A
C212        C426   1.488       .  S
C213        O218   1.267       .  A
C213        O216   1.261       .  A
C213        C849   1.485       .  S
Cd214       O221   2.478       .  S
Cd214       O220   2.463       .  S
Cd214       O219   2.445       .  S
Cd214       O215   2.480       .  S
Cd214       O218   2.506       .  S
Cd214       O216   2.445       .  S
C217        O221   1.264       .  A
C217        C440   1.486       .  S
O222        C225   1.266       .  A
O222       Cd227   2.483       .  S
C223        O232   1.267       .  A
C223        O228   1.266       .  A
C223        C412   1.485       .  S
O224        C230   1.268       .  A
O224       Cd227   2.538       .  S
C225        O233   1.266       .  A
C225        C398   1.489       .  S
C226        O231   1.266       .  A
C226        O229   1.263       .  A
C226        C443   1.486       .  S
Cd227       O234   2.422       .  S
Cd227       O233   2.458       .  S
Cd227       O232   2.466       .  S
Cd227       O228   2.452       .  S
Cd227       O231   2.489       .  S
Cd227       O229   2.487       .  S
C230        O234   1.261       .  A
C230        C681   1.489       .  S
O235        C238   1.265       .  A
O235       Cd240   2.485       .  S
C236        O245   1.266       .  A
C236        O241   1.267       .  A
C236        C454   1.486       .  S
O237        C243   1.264       .  A
O237       Cd240   2.473       .  S
C238        O246   1.265       .  A
C238        C429   1.487       .  S
C239        O244   1.265       .  A
C239        O242   1.263       .  A
C239        C387   1.483       .  S
Cd240       O247   2.476       .  S
Cd240       O246   2.460       .  S
Cd240       O245   2.443       .  S
Cd240       O241   2.474       .  S
Cd240       O244   2.504       .  S
Cd240       O242   2.437       .  S
C243        O247   1.263       .  A
C243        C933   1.483       .  S
O248        C251   1.267       .  A
O248       Cd253   2.485       .  S
C249        O258   1.263       .  A
C249        O254   1.267       .  A
C249        C373   1.482       .  S
O250        C256   1.261       .  A
O250       Cd253   2.466       .  S
C251        O259   1.265       .  A
C251        C415   1.485       .  S
C252        O257   1.267       .  A
C252        O255   1.264       .  A
C252        C384   1.479       .  S
Cd253       O260   2.484       .  S
Cd253       O259   2.441       .  S
Cd253       O258   2.443       .  S
Cd253       O254   2.478       .  S
Cd253       O257   2.473       .  S
Cd253       O255   2.446       .  S
C256        O260   1.264       .  A
C256        C734   1.483       .  S
O261        C264   1.268       .  A
O261       Cd266   2.474       .  S
C262        O271   1.263       .  A
C262        O267   1.264       .  A
C262        C342   1.489       .  S
O263        C269   1.266       .  A
O263       Cd266   2.507       .  S
C264        O272   1.268       .  A
C264        C401   1.488       .  S
C265        O270   1.266       .  A
C265        O268   1.263       .  A
C265        C356   1.478       .  S
Cd266       O273   2.435       .  S
Cd266       O272   2.453       .  S
Cd266       O271   2.492       .  S
Cd266       O267   2.470       .  S
Cd266       O270   2.499       .  S
Cd266       O268   2.445       .  S
C269        O273   1.262       .  A
C269        C569   1.483       .  S
O274        C277   1.266       .  A
O274       Cd279   2.468       .  S
C275        O284   1.267       .  A
C275        O280   1.267       .  A
C275        C328   1.489       .  S
O276        C282   1.268       .  A
O276       Cd279   2.509       .  S
C277        O285   1.265       .  A
C277        C524   1.487       .  S
C278        O283   1.267       .  A
C278        O281   1.265       .  A
C278        C359   1.488       .  S
Cd279       O286   2.414       .  S
Cd279       O285   2.484       .  S
Cd279       O284   2.468       .  S
Cd279       O280   2.470       .  S
Cd279       O283   2.508       .  S
Cd279       O281   2.429       .  S
C282        O286   1.262       .  A
C282        C818   1.483       .  S
O287        C290   1.268       .  A
O287       Cd292   2.464       .  S
C288        O297   1.263       .  A
C288        O293   1.268       .  A
C288        C370   1.484       .  S
O289        C295   1.269       .  A
O289       Cd292   2.505       .  S
C290        O298   1.268       .  A
C290        C345   1.488       .  S
C291        O296   1.263       .  A
C291        O294   1.264       .  A
C291        C317   1.482       .  S
Cd292       O299   2.407       .  S
Cd292       O298   2.456       .  S
Cd292       O297   2.414       .  S
Cd292       O293   2.498       .  S
Cd292       O296   2.480       .  S
Cd292       O294   2.465       .  S
C295        O299   1.261       .  A
C295        C611   1.485       .  S
O300        C303   1.266       .  A
O300       Cd305   2.463       .  S
C301        O310   1.267       .  A
C301        O306   1.266       .  A
C301        C331   1.485       .  S
O302        C308   1.265       .  A
O302       Cd305   2.475       .  S
C303        O311   1.265       .  A
C303        C468   1.486       .  S
C304        O309   1.267       .  A
C304        O307   1.261       .  A
C304        C888   1.483       .  S
Cd305       O312   2.454       .  S
Cd305       O311   2.479       .  S
Cd305       O310   2.492       .  S
Cd305       O306   2.456       .  S
Cd305       O309   2.505       .  S
Cd305       O307   2.419       .  S
C308        O312   1.265       .  A
C308        C314   1.480       .  S
C313        C314   1.403       .  A
C313        C318   1.400       .  A
C313        H320   1.084       .  S
C314        C315   1.412       .  A
C315        C316   1.400       .  A
C315        N322   1.429       .  S
C316        C317   1.404       .  A
C316        H321   1.084       .  S
C317        C318   1.413       .  A
C318        N319   1.429       .  S
N319        O323   1.262       .  A
N319        O324   1.262       .  A
N322        O326   1.262       .  A
N322        O325   1.262       .  A
C327        C328   1.407       .  A
C327        C332   1.404       .  A
C327        H334   1.084       .  S
C328        C329   1.414       .  A
C329        C330   1.400       .  A
C329        N336   1.429       .  S
C330        C331   1.404       .  A
C330        H335   1.084       .  S
C331        C332   1.412       .  A
C332        N333   1.429       .  S
N333        O337   1.262       .  A
N333        O338   1.262       .  A
N336        O340   1.262       .  A
N336        O339   1.262       .  A
C341        C342   1.405       .  A
C341        C346   1.400       .  A
C341        H348   1.084       .  S
C342        C343   1.415       .  A
C343        C344   1.402       .  A
C343        N350   1.429       .  S
C344        C345   1.406       .  A
C344        H349   1.084       .  S
C345        C346   1.413       .  A
C346        N347   1.429       .  S
N347        O351   1.262       .  A
N347        O352   1.262       .  A
N350        O354   1.262       .  A
N350        O353   1.262       .  A
C355        C356   1.404       .  A
C355        C360   1.406       .  A
C355        H362   1.084       .  S
C356        C357   1.408   1_556  A
C357        C358   1.396       .  A
C357        N364   1.430       .  S
C358        C359   1.406       .  A
C358        H363   1.084       .  S
C359        C360   1.416   1_554  A
C360        N361   1.429       .  S
N361        O365   1.262       .  A
N361        O366   1.262   1_556  A
N364        O368   1.262       .  A
N364        O367   1.262   1_554  A
C369        C370   1.406       .  A
C369        C374   1.397       .  A
C369        H376   1.084       .  S
C370        C371   1.412       .  A
C371        C372   1.401       .  A
C371        N378   1.429       .  S
C372        C373   1.407       .  A
C372        H377   1.084       .  S
C373        C374   1.410       .  A
C374        N375   1.429       .  S
N375        O379   1.262       .  A
N375        O380   1.262       .  A
N378        O382   1.262       .  A
N378        O381   1.262       .  A
C383        C384   1.404       .  A
C383        C388   1.403       .  A
C383        H390   1.084       .  S
C384        C385   1.411       .  A
C385        C386   1.396       .  A
C385        N392   1.430       .  S
C386        C387   1.404       .  A
C386        H391   1.084       .  S
C387        C388   1.413       .  A
C388        N389   1.428       .  S
N389        O393   1.262       .  A
N389        O394   1.262       .  A
N392        O396   1.262       .  A
N392        O395   1.262       .  A
C397        C398   1.406   1_556  A
C397        C402   1.401       .  A
C397        H404   1.084       .  S
C398        C399   1.414       .  A
C399        C400   1.402       .  A
C399        N406   1.429       .  S
C400        C401   1.406   1_554  A
C400        H405   1.084       .  S
C401        C402   1.413       .  A
C402        N403   1.429       .  S
N403        O407   1.262       .  A
N403        O408   1.262       .  A
N406        O410   1.262       .  A
N406        O409   1.262       .  A
C411        C412   1.406       .  A
C411        C416   1.401       .  A
C411        H418   1.084       .  S
C412        C413   1.413       .  A
C413        C414   1.399       .  A
C413        N420   1.429       .  S
C414        C415   1.406       .  A
C414        H419   1.084       .  S
C415        C416   1.412       .  A
C416        N417   1.429       .  S
N417        O421   1.262       .  A
N417        O422   1.262       .  A
N420        O424   1.262       .  A
N420        O423   1.262       .  A
C425        C426   1.406       .  A
C425        C430   1.402       .  A
C425        H432   1.084       .  S
C426        C427   1.415       .  A
C427        C428   1.400       .  A
C427        N434   1.429       .  S
C428        C429   1.405       .  A
C428        H433   1.084       .  S
C429        C430   1.414       .  A
C430        N431   1.429       .  S
N431        O435   1.262       .  A
N431        O436   1.262       .  A
N434        O438   1.262       .  A
N434        O437   1.262       .  A
C439        C440   1.405   1_554  A
C439        C444   1.403       .  A
C439        H446   1.084       .  S
C440        C441   1.413       .  A
C441        C442   1.403       .  A
C441        N448   1.429       .  S
C442        C443   1.405   1_556  A
C442        H447   1.084       .  S
C443        C444   1.413       .  A
C444        N445   1.429       .  S
N445        O449   1.262       .  A
N445        O450   1.262       .  A
N448        O452   1.262       .  A
N448        O451   1.262       .  A
C453        C454   1.405       .  A
C453        C458   1.399       .  A
C453        H460   1.084       .  S
C454        C455   1.413       .  A
C455        C456   1.401       .  A
C455        N462   1.429       .  S
C456        C457   1.406       .  A
C456        H461   1.084       .  S
C457        C458   1.414       .  A
C458        N459   1.429       .  S
N459        O463   1.262       .  A
N459        O464   1.262       .  A
N462        O466   1.262       .  A
N462        O465   1.262       .  A
C467        C468   1.404       .  A
C467        C472   1.400       .  A
C467        H474   1.084       .  S
C468        C469   1.413       .  A
C469        C470   1.402       .  A
C469        N476   1.429       .  S
C470        C471   1.406       .  A
C470        H475   1.084       .  S
C471        C472   1.414       .  A
C472        N473   1.429       .  S
N473        O477   1.262       .  A
N473        O478   1.262       .  A
N476        O480   1.262       .  A
N476        O479   1.262       .  A
C481        C482   1.401       .  A
C481        C486   1.395       .  A
C481        H488   1.085       .  S
C482        C483   1.412       .  A
C483        C484   1.406       .  A
C483        N490   1.429       .  S
C484        C485   1.408       .  A
C484        H489   1.084       .  S
C485        C486   1.416       .  A
C486        N487   1.429       .  S
N487        O491   1.262       .  A
N487        O492   1.262       .  A
N490        O494   1.262       .  A
N490        O493   1.262       .  A
C495        C496   1.406   1_556  A
C495        C500   1.400       .  A
C495        H502   1.084       .  S
C496        C497   1.413       .  A
C497        C498   1.400       .  A
C497        N504   1.429       .  S
C498        C499   1.405   1_554  A
C498        H503   1.084       .  S
C499        C500   1.412       .  A
C500        N501   1.429       .  S
N501        O505   1.262       .  A
N501        O506   1.262       .  A
N504        O508   1.262       .  A
N504        O507   1.262       .  A
C509        C510   1.404       .  A
C509        C514   1.401       .  A
C509        H516   1.084       .  S
C510        C511   1.412       .  A
C511        C512   1.399       .  A
C511        N518   1.428       .  S
C512        C513   1.403       .  A
C512        H517   1.084       .  S
C513        C514   1.412       .  A
C514        N515   1.428       .  S
N515        O519   1.262       .  A
N515        O520   1.262       .  A
N518        O522   1.262       .  A
N518        O521   1.261       .  A
C523        C524   1.404       .  A
C523        C528   1.401       .  A
C523        H530   1.084       .  S
C524        C525   1.413   1_554  A
C525        C526   1.403       .  A
C525        N532   1.429       .  S
C526        C527   1.406       .  A
C526        H531   1.084       .  S
C527        C528   1.415   1_556  A
C528        N529   1.429       .  S
N529        O533   1.262       .  A
N529        O534   1.262       .  A
N532        O536   1.262       .  A
N532        O535   1.262       .  A
C537        C538   1.406       .  A
C537        C542   1.401       .  A
C537        H544   1.084       .  S
C538        C539   1.414       .  A
C539        C540   1.402       .  A
C539        N546   1.429       .  S
C540        C541   1.406       .  A
C540        H545   1.084       .  S
C541        C542   1.413       .  A
C542        N543   1.429       .  S
N543        O547   1.262       .  A
N543        O548   1.262       .  A
N546        O550   1.262       .  A
N546        O549   1.262       .  A
C551        C552   1.407       .  A
C551        C556   1.406   1_554  A
C551        H558   1.084       .  S
C552        C553   1.412       .  A
C553        C554   1.395   1_554  A
C553        N560   1.430       .  S
C554        C555   1.404       .  A
C554        H559   1.084       .  S
C555        C556   1.413       .  A
C556        N557   1.428       .  S
N557        O561   1.262   1_556  A
N557        O562   1.262       .  A
N560        O564   1.262   1_554  A
N560        O563   1.262       .  A
C565        C566   1.405       .  A
C565        C570   1.394       .  A
C565        H572   1.084       .  S
C566        C567   1.414       .  A
C567        C568   1.407       .  A
C567        N574   1.428       .  S
C568        C569   1.406       .  A
C568        H573   1.084       .  S
C569        C570   1.411       .  A
C570        N571   1.430       .  S
N571        O575   1.262       .  A
N571        O576   1.262       .  A
N574        O578   1.262       .  A
N574        O577   1.262       .  A
C579        C580   1.403       .  A
C579        C584   1.395   1_565  A
C579        H586   1.084       .  S
C580        C581   1.413       .  A
C581        C582   1.407   1_565  A
C581        N588   1.428       .  S
C582        C583   1.408       .  A
C582        H587   1.084       .  S
C583        C584   1.414       .  A
C584        N585   1.429       .  S
N585        O589   1.262       .  A
N585        O590   1.262       .  A
N588        O592   1.262       .  A
N588        O591   1.262   1_554  A
C593        C594   1.406       .  A
C593        C598   1.400       .  A
C593        H600   1.084       .  S
C594        C595   1.415   1_554  A
C595        C596   1.404       .  A
C595        N602   1.428       .  S
C596        C597   1.403       .  A
C596        H601   1.084       .  S
C597        C598   1.410   1_556  A
C598        N599   1.429       .  S
N599        O603   1.262       .  A
N599        O604   1.262       .  A
N602        O606   1.262       .  A
N602        O605   1.262       .  A
C607        C608   1.403       .  A
C607        C612   1.391       .  A
C607        H614   1.084       .  S
C608        C609   1.414       .  A
C609        C610   1.407       .  A
C609        N616   1.428       .  S
C610        C611   1.407       .  A
C610        H615   1.084       .  S
C611        C612   1.414       .  A
C612        N613   1.430       .  S
N613        O617   1.262       .  A
N613        O618   1.262       .  A
N616        O620   1.262       .  A
N616        O619   1.262       .  A
C621        C622   1.407       .  A
C621        C626   1.403       .  A
C621        H628   1.084       .  S
C622        C623   1.415       .  A
C623        C624   1.402       .  A
C623        N630   1.429       .  S
C624        C625   1.405       .  A
C624        H629   1.084       .  S
C625        C626   1.413       .  A
C626        N627   1.429       .  S
N627        O631   1.262       .  A
N627        O632   1.262       .  A
N630        O634   1.262       .  A
N630        O633   1.262       .  A
C635        C636   1.400       .  A
C635        C640   1.393   1_565  A
C635        H642   1.085       .  S
C636        C637   1.413       .  A
C637        C638   1.407   1_565  A
C637        N644   1.428       .  S
C638        C639   1.406       .  A
C638        H643   1.084       .  S
C639        C640   1.411       .  A
C640        N641   1.427       .  S
N641        O645   1.261       .  A
N641        O646   1.262       .  A
N644        O648   1.262       .  A
N644        O647   1.262       .  A
C649        C650   1.406       .  A
C649        C654   1.401       .  A
C649        H656   1.084       .  S
C650        C651   1.414       .  A
C651        C652   1.404       .  A
C651        N658   1.429       .  S
C652        C653   1.407       .  A
C652        H657   1.084       .  S
C653        C654   1.414       .  A
C654        N655   1.429       .  S
N655        O659   1.262       .  A
N655        O660   1.262       .  A
N658        O662   1.262       .  A
N658        O661   1.262       .  A
C663        C664   1.404       .  A
C663        C668   1.402       .  A
C663        H670   1.084       .  S
C664        C665   1.413       .  A
C665        C666   1.398       .  A
C665        N672   1.430       .  S
C666        C667   1.404       .  A
C666        H671   1.084       .  S
C667        C668   1.413       .  A
C668        N669   1.429       .  S
N669        O673   1.262       .  A
N669        O674   1.262       .  A
N672        O676   1.262       .  A
N672        O675   1.262       .  A
C677        C678   1.407       .  A
C677        C682   1.407       .  A
C677        H684   1.084       .  S
C678        C679   1.411       .  A
C679        C680   1.396       .  A
C679        N686   1.430       .  S
C680        C681   1.405       .  A
C680        H685   1.084       .  S
C681        C682   1.414       .  A
C682        N683   1.428       .  S
N683        O687   1.262       .  A
N683        O688   1.262       .  A
N686        O690   1.262       .  A
N686        O689   1.262       .  A
C691        C692   1.406   1_556  A
C691        C696   1.399       .  A
C691        H698   1.084       .  S
C692        C693   1.413       .  A
C693        C694   1.403       .  A
C693        N700   1.429       .  S
C694        C695   1.406   1_554  A
C694        H699   1.084       .  S
C695        C696   1.412       .  A
C696        N697   1.429       .  S
N697        O701   1.262       .  A
N697        O702   1.262       .  A
N700        O704   1.262       .  A
N700        O703   1.262       .  A
C705        C706   1.405       .  A
C705        C710   1.403   1_455  A
C705        H712   1.084       .  S
C706        C707   1.413       .  A
C707        C708   1.400   1_455  A
C707        N714   1.429       .  S
C708        C709   1.406       .  A
C708        H713   1.084       .  S
C709        C710   1.414       .  A
C710        N711   1.429       .  S
N711        O715   1.262       .  A
N711        O716   1.262       .  A
N714        O718   1.262   1_556  A
N714        O717   1.262       .  A
C719        C720   1.405   1_554  A
C719        C724   1.401       .  A
C719        H726   1.084       .  S
C720        C721   1.412       .  A
C721        C722   1.402       .  A
C721        N728   1.429       .  S
C722        C723   1.405   1_556  A
C722        H727   1.084       .  S
C723        C724   1.410       .  A
C724        N725   1.428       .  S
N725        O729   1.262       .  A
N725        O730   1.262       .  A
N728        O732   1.262       .  A
N728        O731   1.262       .  A
C733        C734   1.404       .  A
C733        C738   1.401       .  A
C733        H740   1.084       .  S
C734        C735   1.413       .  A
C735        C736   1.400       .  A
C735        N742   1.429       .  S
C736        C737   1.404       .  A
C736        H741   1.084       .  S
C737        C738   1.413       .  A
C738        N739   1.429       .  S
N739        O743   1.262       .  A
N739        O744   1.262       .  A
N742        O746   1.262       .  A
N742        O745   1.262       .  A
C747        C748   1.405       .  A
C747        C752   1.402       .  A
C747        H754   1.084       .  S
C748        C749   1.415       .  A
C749        C750   1.402       .  A
C749        N756   1.429       .  S
C750        C751   1.405       .  A
C750        H755   1.084       .  S
C751        C752   1.415       .  A
C752        N753   1.429       .  S
N753        O757   1.262       .  A
N753        O758   1.262       .  A
N756        O760   1.262       .  A
N756        O759   1.262       .  A
C761        C762   1.405       .  A
C761        C766   1.403       .  A
C761        H768   1.084       .  S
C762        C763   1.415       .  A
C763        C764   1.401       .  A
C763        N770   1.429       .  S
C764        C765   1.405       .  A
C764        H769   1.084       .  S
C765        C766   1.414       .  A
C766        N767   1.428       .  S
N767        O771   1.262       .  A
N767        O772   1.262       .  A
N770        O774   1.262       .  A
N770        O773   1.262       .  A
C775        C776   1.404       .  A
C775        C780   1.394   1_455  A
C775        H782   1.084       .  S
C776        C777   1.413       .  A
C777        C778   1.405   1_455  A
C777        N784   1.428       .  S
C778        C779   1.406       .  A
C778        H783   1.084       .  S
C779        C780   1.412       .  A
C780        N781   1.430       .  S
N781        O785   1.262       .  A
N781        O786   1.262       .  A
N784        O788   1.262       .  A
N784        O787   1.262       .  A
C789        C790   1.404       .  A
C789        C794   1.401       .  A
C789        H796   1.084       .  S
C790        C791   1.413       .  A
C791        C792   1.402       .  A
C791        N798   1.429       .  S
C792        C793   1.406       .  A
C792        H797   1.084       .  S
C793        C794   1.415       .  A
C794        N795   1.429       .  S
N795        O799   1.262       .  A
N795        O800   1.262       .  A
N798        O802   1.262       .  A
N798        O801   1.262       .  A
C803        C804   1.403       .  A
C803        C808   1.401       .  A
C803        H810   1.084       .  S
C804        C805   1.410       .  A
C805        C806   1.399       .  A
C805        N812   1.429       .  S
C806        C807   1.403       .  A
C806        H811   1.084       .  S
C807        C808   1.414       .  A
C808        N809   1.429       .  S
N809        O813   1.262       .  A
N809        O814   1.262       .  A
N812        O816   1.262       .  A
N812        O815   1.262       .  A
C817        C818   1.405       .  A
C817        C822   1.396   1_655  A
C817        H824   1.084       .  S
C818        C819   1.412       .  A
C819        C820   1.403   1_655  A
C819        N826   1.428   1_554  S
C820        C821   1.405       .  A
C820        H825   1.084       .  S
C821        C822   1.412       .  A
C822        N823   1.430       .  S
N823        O827   1.262       .  A
N823        O828   1.262       .  A
N826        O830   1.262       .  A
N826        O829   1.262       .  A
C831        C832   1.404       .  A
C831        C836   1.400       .  A
C831        H838   1.084       .  S
C832        C833   1.414   1_556  A
C833        C834   1.400       .  A
C833        N840   1.429       .  S
C834        C835   1.405       .  A
C834        H839   1.084       .  S
C835        C836   1.415   1_554  A
C836        N837   1.429       .  S
N837        O841   1.262       .  A
N837        O842   1.262       .  A
N840        O844   1.262       .  A
N840        O843   1.262       .  A
C845        C846   1.402       .  A
C845        C850   1.396   1_565  A
C845        H852   1.084       .  S
C846        C847   1.412       .  A
C847        C848   1.405   1_565  A
C847        N854   1.429       .  S
C848        C849   1.406       .  A
C848        H853   1.084       .  S
C849        C850   1.413       .  A
C850        N851   1.429       .  S
N851        O855   1.262   1_556  A
N851        O856   1.262       .  A
N854        O858   1.262       .  A
N854        O857   1.262       .  A
C859        C860   1.406   1_554  A
C859        C864   1.402       .  A
C859        H866   1.084       .  S
C860        C861   1.413       .  A
C861        C862   1.402       .  A
C861        N868   1.429       .  S
C862        C863   1.406   1_556  A
C862        H867   1.084       .  S
C863        C864   1.414       .  A
C864        N865   1.429       .  S
N865        O869   1.262       .  A
N865        O870   1.262       .  A
N868        O872   1.262       .  A
N868        O871   1.262       .  A
C873        C874   1.401   1_556  A
C873        C878   1.396       .  A
C873        H880   1.085       .  S
C874        C875   1.409       .  A
C875        C876   1.403   1_554  A
C875        N882   1.428       .  S
C876        C877   1.407       .  A
C876        H881   1.084       .  S
C877        C878   1.415       .  A
C878        N879   1.429       .  S
N879        O883   1.262       .  A
N879        O884   1.262       .  A
N882        O886   1.262       .  A
N882        O885   1.262       .  A
C887        C888   1.406       .  A
C887        C892   1.406   1_655  A
C887        H894   1.084       .  S
C888        C889   1.413       .  A
C889        C890   1.392   1_655  A
C889        N896   1.430       .  S
C890        C891   1.403       .  A
C890        H895   1.084       .  S
C891        C892   1.414       .  A
C892        N893   1.429       .  S
N893        O897   1.262       .  A
N893        O898   1.262       .  A
N896        O900   1.262       .  A
N896        O899   1.262       .  A
C901        C902   1.405       .  A
C901        C906   1.400       .  A
C901        H908   1.084       .  S
C902        C903   1.414       .  A
C903        C904   1.403       .  A
C903        N910   1.429       .  S
C904        C905   1.407       .  A
C904        H909   1.084       .  S
C905        C906   1.413       .  A
C906        N907   1.428       .  S
N907        O911   1.262       .  A
N907        O912   1.262       .  A
N910        O914   1.262       .  A
N910        O913   1.262       .  A
C915        C916   1.406       .  A
C915        C920   1.401       .  A
C915        H922   1.084       .  S
C916        C917   1.414       .  A
C917        C918   1.399       .  A
C917        N924   1.429       .  S
C918        C919   1.405       .  A
C918        H923   1.084       .  S
C919        C920   1.412       .  A
C920        N921   1.429       .  S
N921        O925   1.262       .  A
N921        O926   1.262       .  A
N924        O928   1.262       .  A
N924        O927   1.262       .  A
C929        C930   1.406       .  A
C929        C934   1.400   1_565  A
C929        H936   1.084       .  S
C930        C931   1.414       .  A
C931        C932   1.401   1_565  A
C931        N938   1.429       .  S
C932        C933   1.404       .  A
C932        H937   1.084       .  S
C933        C934   1.412       .  A
C934        N935   1.429       .  S
N935        O939   1.262       .  A
N935        O940   1.262       .  A
N938        O942   1.262       .  A
N938        O941   1.262       .  A
C943        C944   1.406       .  A
C943        C948   1.398       .  A
C943        H950   1.084       .  S
C944        C945   1.411       .  A
C945        C946   1.398       .  A
C945        N952   1.429       .  S
C946        C947   1.405       .  A
C946        H951   1.084       .  S
C947        C948   1.411       .  A
C948        N949   1.429       .  S
N949        O953   1.262       .  A
N949        O954   1.262       .  A
N952        O956   1.262       .  A
N952        O955   1.262       .  A
C957        C958   1.403       .  A
C957        C962   1.397       .  A
C957        H964   1.084       .  S
C958        C959   1.413       .  A
C959        C960   1.400       .  A
C959        N966   1.429       .  S
C960        C961   1.405       .  A
C960        H965   1.084       .  S
C961        C962   1.414       .  A
C962        N963   1.429       .  S
N963        O967   1.262       .  A
N963        O968   1.262       .  A
N966        O970   1.262       .  A
N966        O969   1.262       .  A
C971        C972   1.403       .  A
C971        C976   1.400       .  A
C971        H978   1.084       .  S
C972        C973   1.412       .  A
C973        C974   1.400       .  A
C973        N980   1.429       .  S
C974        C975   1.405       .  A
C974        H979   1.084       .  S
C975        C976   1.414       .  A
C976        N977   1.429       .  S
N977        O981   1.262       .  A
N977        O982   1.262       .  A
N980        O984   1.262       .  A
N980        O983   1.262       .  A
