geometry optimzed in LAMMPS
_audit_creation_date              2020-11-30 
_audit_creation_method            'lammps2cif' 
_symmetry_space_group_name_H-M    'P1' 
_symmetry_Int_Tables_number       1 
_symmetry_cell_setting            triclinic 
loop_ 
_symmetry_equiv_pos_as_xyz 
  x,y,z 
_cell_length_a                    21.456720795860598 
_cell_length_b                    21.785467936868432 
_cell_length_c                    21.47515441897884 
_cell_angle_alpha                 90.48511684920625 
_cell_angle_beta                  89.54874527709012 
_cell_angle_gamma                 88.25742473654697 
loop_ 
_atom_site_label 
_atom_site_type_symbol 
_atom_site_fract_x 
_atom_site_fract_y 
_atom_site_fract_z 
_atom_site_charge 
O1          O  0.01708820  0.29159194  0.41789427    -0.74120
O2          O  0.95892431  0.30508094  0.58933043    -0.74150
O3          O  0.07109666  0.31107662  0.53055177    -0.74200
O4          O  0.90625296  0.29047099  0.47698014    -0.74250
O5          O  0.91794269  0.18843623  0.48164113    -0.74180
O6          O  0.08448442  0.21023067  0.54503065    -0.74160
O7          O  0.97104607  0.20308867  0.59554921    -0.74140
O8          O  0.03290878  0.19145014  0.43275704    -0.74200
Ni9        Ni  0.98825108  0.30335007  0.50359198     1.25410
Ni10       Ni  0.00210635  0.19474923  0.51439743     1.25360
C11         C  0.03216598  0.23754393  0.39687076     0.88060
C12         C  0.95328995  0.25454402  0.61901223     0.87990
C13         C  0.10466424  0.26509277  0.54764530     0.88020
C14         C  0.88612117  0.23700815  0.46645019     0.88190
C15         C  0.82131286  0.16957197  0.83835027    -0.02180
O16         O  0.41664118  0.96819314  0.69269856    -0.74120
O17         O  0.58657926  0.02627142  0.69966609    -0.74150
O18         O  0.53197342  0.91802215  0.69270412    -0.74200
O19         O  0.47280525  0.07801266  0.69069168    -0.74250
O20         O  0.46900151  0.08490041  0.79418035    -0.74180
O21         O  0.52419216  0.91033231  0.79541864    -0.74160
O22         O  0.57959236  0.01923422  0.80314575    -0.74140
O23         O  0.41383563  0.97571646  0.79636316    -0.74200
Ni24       Ni  0.50213386  0.99768983  0.69032517     1.25410
Ni25       Ni  0.49660867  0.99769520  0.80121962     1.25360
C26         C  0.38852769  0.96122418  0.74542544     0.88060
C27         C  0.60987195  0.03216351  0.75439044     0.87990
C28         C  0.53729407  0.88615450  0.74143939     0.88020
C29         C  0.45977236  0.10849664  0.73973953     0.88190
O30         O  0.45999207  0.90901814  0.21448902    -0.74120
O31         O  0.51865889  0.07704975  0.20438389    -0.74150
O32         O  0.57021328  0.96422439  0.20826071    -0.74200
O33         O  0.40759055  0.02185345  0.20126123    -0.74250
O34         O  0.39732979  0.02911476  0.30396954    -0.74180
O35         O  0.57405384  0.97741279  0.31103584    -0.74160
O36         O  0.50819058  0.08425121  0.30752168    -0.74140
O37         O  0.46218436  0.92052691  0.31727093    -0.74200
Ni38       Ni  0.48895229  0.99270071  0.20352322     1.25410
Ni39       Ni  0.48514393  0.00270402  0.31389478     1.25360
C40         C  0.45224795  0.88725390  0.26964024     0.88060
C41         C  0.52356900  0.10751461  0.25597511     0.87990
C42         C  0.60107903  0.96516235  0.25812019     0.88020
C43         C  0.37452305  0.03534771  0.24876472     0.88190
C44         C  0.67310640  0.31982018  0.32331665    -0.02180
O45         O  0.70011127  0.43363658  0.96884121    -0.74120
O46         O  0.71284756  0.59950976  0.03626078    -0.74150
O47         O  0.70336637  0.54753474  0.92208940    -0.74200
O48         O  0.70036360  0.48661328  0.08301531    -0.74250
O49         O  0.80388717  0.47394480  0.08403905    -0.74180
O50         O  0.80588073  0.53315808  0.91180882    -0.74160
O51         O  0.81535942  0.58541958  0.02724916    -0.74140
O52         O  0.80396836  0.42459645  0.97028367    -0.74200
Ni53       Ni  0.70051687  0.51747390  0.00257769     1.25410
Ni54       Ni  0.81117220  0.50462704  0.99845532     1.25360
C55         C  0.75142527  0.40193068  0.96029808     0.88060
C56         C  0.76852654  0.61874498  0.04374474     0.87990
C57         C  0.75211284  0.54713051  0.88823507     0.88020
C58         C  0.74959523  0.46667678  0.10903769     0.88190
C59         C  0.67087927  0.66127248  0.65720392    -0.02180
C60         C  0.83190068  0.85347518  0.16590885    -0.02180
O61         O  0.97146821  0.72097644  0.41298528    -0.74120
O62         O  0.03533831  0.71036825  0.58196468    -0.74150
O63         O  0.91994595  0.71280629  0.52781954    -0.74200
O64         O  0.08428461  0.71106457  0.46594236    -0.74250
O65         O  0.08712394  0.81333704  0.46952713    -0.74180
O66         O  0.91723219  0.81496551  0.53666810    -0.74160
O67         O  0.03401680  0.81282883  0.58462613    -0.74140
O68         O  0.97137464  0.82285329  0.42307163    -0.74200
Ni69       Ni  0.00246355  0.71009749  0.49718436     1.25410
Ni70       Ni  0.00224554  0.81964295  0.50387632     1.25360
C71         C  0.96304209  0.77516965  0.39028420     0.88060
C72         C  0.04769792  0.76146156  0.60936455     0.87990
C73         C  0.89078036  0.76281007  0.54161787     0.88020
C74         C  0.11301935  0.76039372  0.45690213     0.88190
C75         C  0.34126059  0.33961194  0.65765419    -0.02180
C76         C  0.17138963  0.83662557  0.83995796    -0.02180
C77         C  0.34066819  0.65373889  0.34576251    -0.02180
C78         C  0.15070839  0.16950933  0.16126894    -0.02180
O79         O  0.30338509  0.57355213  0.95946191    -0.74120
O80         O  0.30406549  0.40713623  0.02700409    -0.74150
O81         O  0.30092085  0.45873455  0.91339875    -0.74200
O82         O  0.31638261  0.52216612  0.07336197    -0.74250
O83         O  0.21419304  0.52834562  0.08916762    -0.74180
O84         O  0.19697682  0.46352621  0.91914506    -0.74160
O85         O  0.20049473  0.41627710  0.03460110    -0.74140
O86         O  0.20023952  0.57723467  0.97339518    -0.74200
Ni87       Ni  0.30978972  0.49033700  0.99312803     1.25410
Ni88       Ni  0.19912411  0.49684457  0.00446370     1.25360
C89         C  0.24994830  0.60206025  0.95533460     0.88060
C90         C  0.25058895  0.38441803  0.04009573     0.87990
C91         C  0.24827861  0.44886841  0.88989738     0.88020
C92         C  0.27048075  0.53505188  0.10891483     0.88190
C93         C  0.99548423  0.00667212  0.99490186    -0.02180
C94         C  0.51705927  0.48804237  0.49720056    -0.02180
C95         C  0.24247506  0.32105883  0.06247246     0.00150
C96         C  0.25966679  0.30690241  0.12328986    -0.11720
C97         C  0.23167663  0.25884368  0.15559746     0.02390
C98         C  0.18661219  0.22095260  0.12580225     0.00070
C99         C  0.17820416  0.23050471  0.06145786    -0.11660
C100        C  0.20134382  0.28187903  0.03148179     0.02280
H101        H  0.28986379  0.33770210  0.14801561     0.15260
H102        H  0.15116640  0.19985345  0.03376201     0.15260
C103        C  0.17716130  0.29602723  0.97045268     0.36910
C104        C  0.24626928  0.25507379  0.22100410     0.36810
N105        N  0.15664060  0.30701271  0.92198242    -0.43430
N106        N  0.25878589  0.25452328  0.27333844    -0.43430
C107        C  0.03330240  0.04961657  0.04035819     0.00150
C108        C  0.02435741  0.11460853  0.04165269    -0.11720
C109        C  0.05754593  0.15298662  0.08211029     0.02390
C110        C  0.10696299  0.12872870  0.11909640     0.00070
C111        C  0.10916382  0.06372346  0.12408758    -0.11660
C112        C  0.07240579  0.02528773  0.08799463     0.02280
H113        H  0.98933253  0.13684852  0.01311971     0.15260
H114        H  0.13799080  0.04151792  0.15885608     0.15260
C115        C  0.07476717  0.96086739  0.10356745     0.36910
C116        C  0.03848454  0.21709800  0.08465976     0.36810
N117        N  0.07586468  0.91003430  0.11875717    -0.43430
N118        N  0.02192260  0.26814204  0.08545426    -0.43430
C119        C  0.28618452  0.55831651  0.17264290     0.00150
C120        C  0.23911214  0.57649359  0.21489044    -0.11720
C121        C  0.25319788  0.60240767  0.27329573     0.02390
C122        C  0.31666617  0.61495371  0.28917535     0.00070
C123        C  0.36311512  0.58994157  0.24920783    -0.11660
C124        C  0.34926582  0.56265214  0.19234736     0.02280
H125        H  0.19084394  0.56979676  0.20256170     0.15260
H126        H  0.41174859  0.59515331  0.26100486     0.15260
C127        C  0.40250466  0.54113465  0.15562310     0.36910
C128        C  0.20094996  0.60985814  0.31576204     0.36810
N129        N  0.44551692  0.52427199  0.12666741    -0.43430
N130        N  0.15826898  0.61442454  0.34898151    -0.43430
C131        C  0.47179315  0.53012013  0.45579089     0.00150
C132        C  0.40816968  0.51722282  0.44742837    -0.11720
C133        C  0.36768511  0.55220414  0.40910827     0.02390
C134        C  0.38637751  0.60868067  0.38354386     0.00070
C135        C  0.45181323  0.61765670  0.38562135    -0.11660
C136        C  0.49342652  0.58024948  0.42024108     0.02280
H137        H  0.38885075  0.47814800  0.46906308     0.15260
H138        H  0.47257522  0.65310187  0.35820128     0.15260
C139        C  0.55885366  0.59347908  0.41520423     0.36910
C140        C  0.30718851  0.52753785  0.39702285     0.36810
N141        N  0.61104452  0.60464785  0.41026427    -0.43430
N142        N  0.25953194  0.50566207  0.38828606    -0.43430
C143        C  0.19292025  0.77652889  0.87567352     0.00150
C144        C  0.22594295  0.73017714  0.83981518    -0.11720
C145        C  0.25013426  0.67564573  0.86568219     0.02390
C146        C  0.24154544  0.66431393  0.92918380     0.00070
C147        C  0.20866921  0.70830557  0.96537845    -0.11660
C148        C  0.18457092  0.76337572  0.94024276     0.02280
H149        H  0.23494433  0.73738245  0.79078684     0.15260
H150        H  0.20011181  0.69842955  0.01414880     0.15260
C151        C  0.15288107  0.80300384  0.98451494     0.36910
C152        C  0.28153435  0.63099917  0.82541422     0.36810
N153        N  0.12928333  0.83208992  0.02382353    -0.43430
N154        N  0.30685530  0.59547807  0.79296380    -0.43430
C155        C  0.12664790  0.88453886  0.87738338     0.00150
C156        C  0.06351886  0.89623141  0.86025069    -0.11720
C157        C  0.02191502  0.93561866  0.89491490     0.02390
C158        C  0.04179524  0.96748757  0.94950000     0.00070
C159        C  0.10728129  0.96502965  0.95840185    -0.11660
C160        C  0.14843768  0.92466720  0.92501073     0.02280
H161        H  0.04458027  0.87422040  0.81983287     0.15260
H162        H  0.12855754  0.99478486  0.99169152     0.15260
C163        C  0.21315392  0.92602634  0.94299484     0.36910
C164        C  0.95764934  0.93816717  0.87502854     0.36810
N165        N  0.26438056  0.92902224  0.95891438    -0.43430
N166        N  0.90627399  0.93953038  0.85892448    -0.43430
C167        C  0.31345411  0.37045272  0.71876401     0.00150
C168        C  0.30936986  0.33517148  0.77366895    -0.11720
C169        C  0.28349255  0.35830083  0.82864112     0.02390
C170        C  0.25232360  0.41607119  0.82994601     0.00070
C171        C  0.24956143  0.44982013  0.77485940    -0.11660
C172        C  0.28021204  0.42841875  0.72009379     0.02280
H173        H  0.32613085  0.28807224  0.77539096     0.15260
H174        H  0.22825546  0.49561690  0.77612075     0.15260
C175        C  0.27978907  0.47006770  0.66849024     0.36910
C176        C  0.29787360  0.32428062  0.88451067     0.36810
N177        N  0.27874516  0.50672665  0.62985928    -0.43430
N178        N  0.31261339  0.29626847  0.92778406    -0.43430
C179        C  0.38853680  0.37915114  0.61924085     0.00150
C180        C  0.40465176  0.35962445  0.55820345    -0.11720
C181        C  0.44521141  0.39188331  0.51915023     0.02390
C182        C  0.47745824  0.44428589  0.54138250     0.00070
C183        C  0.47129962  0.45490808  0.60656676    -0.11660
C184        C  0.42677441  0.42560989  0.64428549     0.02280
H185        H  0.38190221  0.32034433  0.53879607     0.15260
H186        H  0.50106296  0.48654769  0.62985589     0.15260
C187        C  0.42481200  0.44335242  0.70920326     0.36910
C188        C  0.44831094  0.37079631  0.45527044     0.36810
N189        N  0.42389111  0.45834987  0.76105524    -0.43430
N190        N  0.44829595  0.35277532  0.40443386    -0.43430
C191        C  0.17789469  0.75149296  0.43448707     0.00150
C192        C  0.21600441  0.71334406  0.47099974    -0.11720
C193        C  0.26719638  0.67972049  0.44608041     0.02390
C194        C  0.28467831  0.68626954  0.38223952     0.00070
C195        C  0.24847806  0.72996691  0.34783225    -0.11660
C196        C  0.19506368  0.76015235  0.37214696     0.02280
H197        H  0.20133723  0.70461992  0.51860120     0.15260
H198        H  0.25880514  0.73655084  0.29893013     0.15260
C199        C  0.15539994  0.79259863  0.32900634     0.36910
C200        C  0.29282905  0.63505362  0.48785060     0.36810
N201        N  0.12574446  0.81669378  0.29118751    -0.43430
N202        N  0.30683603  0.59858059  0.52427861    -0.43430
C203        C  0.08419522  0.76547304  0.66706321     0.00150
C204        C  0.05898796  0.75065563  0.72509855    -0.11720
C205        C  0.08674546  0.77098677  0.78078296     0.02390
C206        C  0.13889096  0.81070177  0.77931030     0.00070
C207        C  0.16678366  0.81808302  0.71980245    -0.11660
C208        C  0.13982542  0.79776152  0.66520837     0.02280
H209        H  0.01669200  0.72470175  0.72701061     0.15260
H210        H  0.21154209  0.83830680  0.71372219     0.15260
C211        C  0.16981523  0.81387135  0.60728856     0.36910
C212        C  0.06216059  0.74727008  0.83806420     0.36810
N213        N  0.19500775  0.82871574  0.56229786    -0.43430
N214        N  0.04263376  0.72517484  0.88264119    -0.43430
C215        C  0.87278651  0.82606791  0.22040103     0.00150
C216        C  0.92769400  0.85482421  0.23879454    -0.11720
C217        C  0.95857765  0.83848083  0.29314539     0.02390
C218        C  0.94117927  0.78586278  0.32641219     0.00070
C219        C  0.89315620  0.75086280  0.30382535    -0.11660
C220        C  0.85609376  0.77226756  0.25491186     0.02280
H221        H  0.94560011  0.89318632  0.21409963     0.15260
H222        H  0.88006693  0.71029750  0.32898532     0.15260
C223        C  0.79805888  0.74100122  0.24693112     0.36910
C224        C  0.00433065  0.88041497  0.31596119     0.36810
N225        N  0.75175955  0.71553713  0.24201329    -0.43430
N226        N  0.03957541  0.91529993  0.33436143    -0.43430
C227        C  0.87323484  0.89538273  0.12167814     0.00150
C228        C  0.89736814  0.87205872  0.06459453    -0.11720
C229        C  0.94294773  0.90117644  0.02980360     0.02390
C230        C  0.95485234  0.96449162  0.03906264     0.00070
C231        C  0.92577737  0.99112370  0.09322592    -0.11660
C232        C  0.88958209  0.95729066  0.13547708     0.02280
H233        H  0.88409603  0.82855217  0.04615679     0.15260
H234        H  0.93240069  0.03916448  0.10383091     0.15260
C235        C  0.87045790  0.98836365  0.19254311     0.36910
C236        C  0.97994227  0.85901213  0.99241372     0.36810
N237        N  0.85562707  0.01358157  0.23819620    -0.43430
N238        N  0.00737576  0.82086192  0.96529541    -0.43430
C239        C  0.72491245  0.69702416  0.62461850     0.00150
C240        C  0.73378079  0.69440594  0.55941937    -0.11720
C241        C  0.78334128  0.72327483  0.53008077     0.02390
C242        C  0.82645991  0.75632440  0.56512517     0.00070
C243        C  0.81485167  0.76551145  0.62843887    -0.11660
C244        C  0.76457300  0.73777692  0.65820727     0.02280
H245        H  0.70220610  0.66981387  0.53013722     0.15260
H246        H  0.84797505  0.79076661  0.65580925     0.15260
C247        C  0.75931111  0.74925378  0.72440815     0.36910
C248        C  0.78910588  0.71763883  0.46336467     0.36810
N249        N  0.75751353  0.75915214  0.77744977    -0.43430
N250        N  0.79170660  0.71307795  0.40974244    -0.43430
C251        C  0.55819283  0.53390576  0.53732195     0.00150
C252        C  0.62470483  0.53147427  0.53731221    -0.11720
C253        C  0.66083147  0.56880691  0.57650958     0.02390
C254        C  0.63288124  0.61779976  0.61194102     0.00070
C255        C  0.56697936  0.62246027  0.60889079    -0.11660
C256        C  0.53073319  0.58268202  0.57367498     0.02280
H257        H  0.65058334  0.50067016  0.50663119     0.15260
H258        H  0.54133315  0.65548096  0.63767210     0.15260
C259        C  0.46442546  0.59224640  0.58062169     0.36910
C260        C  0.72705619  0.55520311  0.57897188     0.36810
N261        N  0.41207949  0.60128877  0.59089653    -0.43430
N262        N  0.78008317  0.54398956  0.58058145    -0.43430
C263        C  0.78205121  0.67920464  0.07256335     0.00150
C264        C  0.73483247  0.72412384  0.08166239    -0.11720
C265        C  0.74672000  0.78111452  0.11023210     0.02390
C266        C  0.80913094  0.79598123  0.12778122     0.00070
C267        C  0.85576811  0.74981947  0.11596336    -0.11660
C268        C  0.84314239  0.69255396  0.09184011     0.02280
H269        H  0.68767736  0.71395364  0.06788209     0.15260
H270        H  0.90375782  0.75808883  0.12843441     0.15260
C271        C  0.89456269  0.64792052  0.09179907     0.36910
C272        C  0.69181228  0.81916887  0.12188745     0.36810
N273        N  0.93579872  0.61242756  0.09255954    -0.43430
N274        N  0.64529980  0.84656021  0.12977931    -0.43430
C275        C  0.74011975  0.56207686  0.82159945     0.00150
C276        C  0.67805422  0.55694377  0.80206226    -0.11720
C277        C  0.65559116  0.58597038  0.74913806     0.02390
C278        C  0.69667040  0.61851988  0.71004386     0.00070
C279        C  0.76164457  0.61068785  0.72261966    -0.11660
C280        C  0.78320991  0.58559255  0.77920632     0.02280
H281        H  0.64466478  0.53396104  0.83132554     0.15260
H282        H  0.79620807  0.62708115  0.69045114     0.15260
C283        C  0.84873998  0.58671956  0.79333486     0.36910
C284        C  0.58871195  0.58594979  0.74177107     0.36810
N285        N  0.90137794  0.58757119  0.80452913    -0.43430
N286        N  0.53489178  0.58484327  0.73903389    -0.43430
C287        C  0.69373797  0.36139033  0.26823700     0.00150
C288        C  0.67410406  0.34868622  0.20730355    -0.11720
C289        C  0.69676900  0.37914853  0.15609648     0.02390
C290        C  0.73810175  0.42784595  0.16358315     0.00070
C291        C  0.75345374  0.44630857  0.22413035    -0.11660
C292        C  0.73122901  0.41417158  0.27638587     0.02280
H293        H  0.63882273  0.31574015  0.19809438     0.15260
H294        H  0.78163589  0.48627791  0.23069072     0.15260
C295        C  0.75029127  0.43449711  0.33731928     0.36910
C296        C  0.67313614  0.36011723  0.09626563     0.36810
N297        N  0.76581684  0.45090319  0.38603325    -0.43430
N298        N  0.65196634  0.34293916  0.05014563    -0.43430
C299        C  0.63443505  0.36493972  0.36943999     0.00150
C300        C  0.64511289  0.36854359  0.43459810    -0.11720
C301        C  0.60501001  0.40220373  0.47578639     0.02390
C302        C  0.55971165  0.44529138  0.45300128     0.00070
C303        C  0.55131380  0.44442548  0.38760282    -0.11660
C304        C  0.58436453  0.40358012  0.34749567     0.02280
H305        H  0.68396624  0.34469019  0.45562504     0.15260
H306        H  0.51481339  0.47213501  0.36648618     0.15260
C307        C  0.56172262  0.40069475  0.28434882     0.36910
C308        C  0.61261118  0.39199205  0.54179337     0.36810
N309        N  0.54143203  0.39914827  0.23459572    -0.43430
N310        N  0.61882238  0.38372832  0.59457969    -0.43430
C311        C  0.43055079  0.82397097  0.28285750     0.00150
C312        C  0.43244655  0.80495821  0.34534652    -0.11720
C313        C  0.40472172  0.75161162  0.36539331     0.02390
C314        C  0.37749714  0.71082358  0.32197358     0.00070
C315        C  0.37747498  0.72941926  0.25840000    -0.11660
C316        C  0.40301520  0.78503884  0.23898818     0.02280
H317        H  0.45360689  0.83350803  0.38045076     0.15260
H318        H  0.35351771  0.70347294  0.22341272     0.15260
C319        C  0.39669324  0.80237246  0.17456810     0.36910
C320        C  0.40418719  0.74125963  0.43190544     0.36810
N321        N  0.39120036  0.81611852  0.12291429    -0.43430
N322        N  0.40464903  0.73358137  0.48516868    -0.43430
C323        C  0.66848094  0.95272198  0.24820411     0.00150
C324        C  0.69214514  0.96955308  0.18957771    -0.11720
C325        C  0.74223004  0.93745128  0.16159422     0.02390
C326        C  0.77659655  0.89240113  0.19585321     0.00070
C327        C  0.75893808  0.88566682  0.25984950    -0.11660
C328        C  0.70405116  0.91268722  0.28479913     0.02280
H329        H  0.66594444  0.00250698  0.16163792     0.15260
H330        H  0.78514611  0.85717823  0.29139516     0.15260
C331        C  0.68317245  0.89501351  0.34597045     0.36910
C332        C  0.75195909  0.94783010  0.09578003     0.36810
N333        N  0.66650666  0.88049549  0.39491588    -0.43430
N334        N  0.75897819  0.95618511  0.04306686    -0.43430
C335        C  0.20470152  0.12790275  0.18830899     0.00150
C336        C  0.21755837  0.12370372  0.25332328    -0.11720
C337        C  0.27088659  0.09208027  0.27586200     0.02390
C338        C  0.31109612  0.06058880  0.23384297     0.00070
C339        C  0.29481083  0.05958979  0.17033684    -0.11660
C340        C  0.24570164  0.09487986  0.14715309     0.02280
H341        H  0.18944314  0.14914711  0.28721079     0.15260
H342        H  0.32320962  0.03380333  0.13658378     0.15260
C343        C  0.23935423  0.09565473  0.08005704     0.36910
C344        C  0.28463609  0.09554705  0.34144335     0.36810
N345        N  0.23484168  0.09523677  0.02637762    -0.43430
N346        N  0.29564416  0.09858370  0.39403266    -0.43430
C347        C  0.55304007  0.16782171  0.26071505     0.00150
C348        C  0.61296642  0.17268307  0.23646310    -0.11720
C349        C  0.65257533  0.21866837  0.25689728     0.02390
C350        C  0.63126899  0.26534171  0.30063588     0.00070
C351        C  0.57017646  0.25884498  0.32476612    -0.11660
C352        C  0.53158111  0.21182417  0.30517319     0.02280
H353        H  0.63087232  0.13716846  0.20470264     0.15260
H354        H  0.55189623  0.28887978  0.36113453     0.15260
C355        C  0.47081010  0.20780121  0.33427378     0.36910
C356        C  0.71423557  0.21517972  0.22975255     0.36810
N357        N  0.42245224  0.20427029  0.35801512    -0.43430
N358        N  0.76193908  0.20851148  0.20472284    -0.43430
C359        C  0.56027400  0.82188318  0.72859215     0.00150
C360        C  0.55970789  0.80387696  0.66545178    -0.11720
C361        C  0.59651209  0.75560841  0.64249237     0.02390
C362        C  0.62770756  0.71472617  0.68391162     0.00070
C363        C  0.62179968  0.72857971  0.74888299    -0.11660
C364        C  0.59064201  0.78267559  0.77097699     0.02280
H365        H  0.53397340  0.83104752  0.63157871     0.15260
H366        H  0.64576538  0.70055379  0.78290423     0.15260
C367        C  0.59363817  0.79830584  0.83623600     0.36910
C368        C  0.59995359  0.75012901  0.57524855     0.36810
N369        N  0.59631461  0.81083340  0.88860236    -0.43430
N370        N  0.60105891  0.74692943  0.52140781    -0.43430
C371        C  0.33109578  0.92714695  0.75390736     0.00150
C372        C  0.34032752  0.87450110  0.78986465    -0.11720
C373        C  0.29337886  0.85253736  0.82780107     0.02390
C374        C  0.23026070  0.87321970  0.81922023     0.00070
C375        C  0.22127137  0.92776735  0.78381964    -0.11660
C376        C  0.27131189  0.95548196  0.75295844     0.02280
H377        H  0.38765082  0.85636852  0.79618681     0.15260
H378        H  0.17463833  0.94752500  0.77866915     0.15260
C379        C  0.26092605  0.01359668  0.72243225     0.36910
C380        C  0.31531593  0.81824540  0.88115294     0.36810
N381        N  0.25278824  0.06037783  0.69820009    -0.43430
N382        N  0.33446070  0.79186528  0.92385566    -0.43430
C383        C  0.38094330  0.27971544  0.67286621     0.00150
C384        C  0.42678161  0.28064267  0.72044838    -0.11720
C385        C  0.45008289  0.22596003  0.74796678     0.02390
C386        C  0.42921365  0.16893672  0.72668642     0.00070
C387        C  0.38888001  0.16836241  0.67543620    -0.11660
C388        C  0.37032863  0.22163857  0.64504688     0.02280
H389        H  0.44030619  0.32409266  0.73998363     0.15260
H390        H  0.37571061  0.12479706  0.65520204     0.15260
C391        C  0.34483281  0.21363811  0.58340749     0.36910
C392        C  0.49461384  0.22983820  0.79760101     0.36810
N393        N  0.32475402  0.20615072  0.53413891    -0.43430
N394        N  0.52995501  0.23387976  0.83772780    -0.43430
C395        C  0.75459116  0.33881419  0.93628029     0.00150
C396        C  0.74044984  0.33005758  0.87399795    -0.11720
C397        C  0.76233272  0.27780938  0.84148282     0.02390
C398        C  0.79886582  0.23043768  0.87228184     0.00070
C399        C  0.81366012  0.24132109  0.93525534    -0.11660
C400        C  0.79130719  0.29381892  0.96711617     0.02280
H401        H  0.71480640  0.36608849  0.84954464     0.15260
H402        H  0.84340780  0.20973705  0.96066148     0.15260
C403        C  0.80931045  0.30186191  0.03128491     0.36910
C404        C  0.74223316  0.27450415  0.77754799     0.36810
N405        N  0.82403874  0.30789909  0.08262040    -0.43430
N406        N  0.72392944  0.27492673  0.72698802    -0.43430
C407        C  0.76442295  0.12942831  0.82241768     0.00150
C408        C  0.77523006  0.06971417  0.79632733    -0.12180
C409        C  0.72599810  0.03640747  0.77100892     0.02390
C410        C  0.66647876  0.06494937  0.76672645     0.00070
C411        C  0.65495015  0.12102251  0.79681662    -0.11660
C412        C  0.70069645  0.14872990  0.83104376     0.02280
H413        H  0.82228029  0.05027655  0.79341016     0.15260
H414        H  0.60721480  0.13884243  0.80087320     0.15260
C415        C  0.67710554  0.18742870  0.88154910     0.36910
C416        C  0.73751487  0.97446097  0.74860012     0.36810
N417        N  0.65662279  0.21714976  0.92217675    -0.43430
N418        N  0.74650588  0.92461266  0.73094517    -0.43430
C419        C  0.86706414  0.12755455  0.87955281     0.00150
C420        C  0.93151192  0.11873796  0.86519196    -0.11720
C421        C  0.97294084  0.08414925  0.90289658     0.02390
C422        C  0.95067512  0.04839355  0.95318870     0.00070
C423        C  0.88565115  0.05342223  0.96466828    -0.11660
C424        C  0.84545805  0.09336502  0.93154551     0.02280
H425        H  0.95177410  0.13883567  0.82451285     0.15260
H426        H  0.86431500  0.02716895  0.00084202     0.15260
C427        C  0.78171605  0.09705162  0.95367103     0.36910
C428        C  0.03869968  0.08766114  0.88874645     0.36810
N429        N  0.73147451  0.09803432  0.97369475    -0.43430
N430        N  0.09125061  0.09122197  0.87724427    -0.43430
C431        C  0.83183207  0.23543532  0.42510733     0.00150
C432        C  0.84258378  0.25979127  0.36650978    -0.11720
C433        C  0.79464258  0.28624534  0.33149430     0.02390
C434        C  0.73127735  0.28675084  0.35429972     0.00070
C435        C  0.72071785  0.24974955  0.40721801    -0.11660
C436        C  0.77004541  0.22853045  0.44493531     0.02280
H437        H  0.89050200  0.26295211  0.35015009     0.15260
H438        H  0.67326421  0.24307093  0.42298069     0.15260
C439        C  0.75566018  0.20473415  0.50532868     0.36910
C440        C  0.81582052  0.30913553  0.27236446     0.36810
N441        N  0.74224220  0.18632024  0.55372657    -0.43430
N442        N  0.83603134  0.32583192  0.22555052    -0.43430
C443        C  0.16683648  0.27802587  0.57170369     0.00150
C444        C  0.20066425  0.32330365  0.54201656    -0.11720
C445        C  0.25472719  0.34662425  0.56797250     0.02390
C446        C  0.27930594  0.32178715  0.62414240     0.00070
C447        C  0.24226474  0.27735645  0.65441493    -0.11660
C448        C  0.18767072  0.25523625  0.62880233     0.02280
H449        H  0.18259755  0.34309543  0.49930042     0.15260
H450        H  0.25705304  0.25779644  0.69812983     0.15260
C451        C  0.15215729  0.21187991  0.66394333     0.36910
C452        C  0.27702125  0.40022791  0.53802659     0.36810
N453        N  0.12360167  0.17741636  0.69229212    -0.43430
N454        N  0.29131295  0.44390866  0.51221640    -0.43430
C455        C  0.04914664  0.22516441  0.33077505     0.00150
C456        C  0.07027290  0.27177546  0.29220943    -0.11720
C457        C  0.09643719  0.25787558  0.23323228     0.02390
C458        C  0.10725662  0.19510421  0.21471430     0.00070
C459        C  0.07658205  0.15063089  0.24993782    -0.11660
C460        C  0.04709356  0.16483541  0.30605649     0.02280
H461        H  0.06706809  0.31906981  0.30837802     0.15260
H462        H  0.07930138  0.10281286  0.23601598     0.15260
C463        C  0.01646139  0.11525097  0.33727777     0.36910
C464        C  0.10749597  0.30956631  0.19355500     0.36810
N465        N  0.99218057  0.07524941  0.36182687    -0.43430
N466        N  0.11508362  0.35201529  0.16263960    -0.43430
C467        C  0.85479327  0.19332036  0.77796445     0.00150
C468        C  0.90436313  0.23493154  0.78631046    -0.11720
C469        C  0.93628995  0.26048966  0.73573901     0.02390
C470        C  0.91532331  0.24969887  0.67527004     0.00070
C471        C  0.86340196  0.21454109  0.66636766    -0.11660
C472        C  0.83460373  0.18456897  0.71486241     0.02280
H473        H  0.91979984  0.24560996  0.83301625     0.15260
H474        H  0.84793828  0.20661760  0.61892037     0.15260
C475        C  0.78277412  0.14996133  0.69345871     0.36910
C476        C  0.99133642  0.29530485  0.74658494     0.36810
N477        N  0.74234970  0.12428687  0.67058375    -0.43430
N478        N  0.03559095  0.32315203  0.75515362    -0.43430
loop_ 
_geom_bond_atom_site_label_1 
_geom_bond_atom_site_label_2 
_geom_bond_distance 
_geom_bond_site_symmetry_2 
_ccdc_geom_bond_type 
O1           Ni9   1.949   1_455  S
O1           C11   1.289       .  A
O2           Ni9   1.941       .  S
O2           C12   1.285       .  A
O3           Ni9   1.886   1_455  S
O3           C13   1.274       .  A
O4           Ni9   1.883       .  S
O4           C14   1.274       .  A
O5          Ni10   1.952   1_655  S
O5           C14   1.288       .  A
O6          Ni10   1.929       .  S
O6           C13   1.284       .  A
O7          Ni10   1.866   1_655  S
O7           C12   1.272       .  A
O8          Ni10   1.869       .  S
O8           C11   1.271       .  A
Ni9         Ni10   2.389   1_655  S
C11         C455   1.483       .  S
C12         C470   1.458       .  S
C13         C443   1.469       .  S
C14         C431   1.471       .  S
C15         C398   1.569       .  S
C15         C407   1.562       .  S
C15         C419   1.599       .  S
C15         C467   1.576       .  S
O16         Ni24   1.962       .  S
O16          C26   1.291       .  A
O17         Ni24   1.945   1_545  S
O17          C27   1.288       .  A
O18         Ni24   1.833       .  S
O18          C28   1.265       .  A
O19         Ni24   1.841   1_545  S
O19          C29   1.265       .  A
O20         Ni25   1.980   1_545  S
O20          C29   1.295       .  A
O21         Ni25   1.978       .  S
O21          C28   1.295       .  A
O22         Ni25   1.856   1_545  S
O22          C27   1.266       .  A
O23         Ni25   1.857       .  S
O23          C26   1.267       .  A
Ni24        Ni25   2.383       .  S
C26         C371   1.469       .  S
C27         C410   1.453       .  S
C28         C359   1.493       .  S
C29         C386   1.483       .  S
O30         Ni38   1.959       .  S
O30          C40   1.291       .  A
O31         Ni38   1.963   1_545  S
O31          C41   1.293       .  A
O32         Ni38   1.837       .  S
O32          C42   1.264       .  A
O33         Ni38   1.841   1_545  S
O33          C43   1.265       .  A
O34         Ni39   1.967       .  S
O34          C43   1.293       .  A
O35         Ni39   1.970   1_565  S
O35          C42   1.294       .  A
O36         Ni39   1.864       .  S
O36          C41   1.267       .  A
O37         Ni39   1.873   1_565  S
O37          C40   1.272       .  A
Ni38        Ni39   2.379   1_565  S
C40         C311   1.497       .  S
C41         C347   1.478       .  S
C42         C323   1.477       .  S
C43         C338   1.490       .  S
C44         C287   1.565       .  S
C44         C299   1.599       .  S
C44         C350   1.585       .  S
C44         C434   1.577       .  S
O45         Ni53   1.959   1_556  S
O45          C55   1.293       .  A
O46         Ni53   1.949       .  S
O46          C56   1.289       .  A
O47         Ni53   1.855   1_556  S
O47          C57   1.269       .  A
O48         Ni53   1.859       .  S
O48          C58   1.266       .  A
O49         Ni54   1.968   1_554  S
O49          C58   1.293       .  A
O50         Ni54   1.970       .  S
O50          C57   1.292       .  A
O51         Ni54   1.866   1_554  S
O51          C56   1.268       .  A
O52         Ni54   1.852       .  S
O52          C55   1.264       .  A
Ni53        Ni54   2.383   1_554  S
C55         C395   1.464       .  S
C56         C263   1.488       .  S
C57         C275   1.493       .  S
C58         C290   1.474       .  S
C59         C239   1.579       .  S
C59         C254   1.597       .  S
C59         C278   1.568       .  S
C59         C362   1.568       .  S
C60         C215   1.579       .  S
C60         C227   1.604       .  S
C60         C266   1.582       .  S
C60         C326   1.568       .  S
O61         Ni69   1.945   1_655  S
O61          C71   1.289       .  A
O62         Ni69   1.958       .  S
O62          C72   1.290       .  A
O63         Ni69   1.883   1_655  S
O63          C73   1.271       .  A
O64         Ni69   1.875       .  S
O64          C74   1.271       .  A
O65         Ni70   1.960       .  S
O65          C74   1.291       .  A
O66         Ni70   1.956   1_655  S
O66          C73   1.290       .  A
O67         Ni70   1.874       .  S
O67          C72   1.270       .  A
O68         Ni70   1.863   1_655  S
O68          C71   1.268       .  A
Ni69        Ni70   2.389       .  S
C71         C218   1.471       .  S
C72         C203   1.474       .  S
C73         C242   1.477       .  S
C74         C191   1.476       .  S
C75         C167   1.574       .  S
C75         C179   1.582       .  S
C75         C383   1.574       .  S
C75         C446   1.574       .  S
C76         C143   1.582       .  S
C76         C155   1.603       .  S
C76         C206   1.590       .  S
C76         C374   1.577       .  S
C77         C122   1.573       .  S
C77         C134   1.597       .  S
C77         C194   1.576       .  S
C77         C314   1.580       .  S
C78          C98   1.577       .  S
C78         C110   1.594       .  S
C78         C335   1.567       .  S
C78         C458   1.561       .  S
O79         Ni87   1.959       .  S
O79          C89   1.291       .  A
O80         Ni87   1.966   1_554  S
O80          C90   1.293       .  A
O81         Ni87   1.853       .  S
O81          C91   1.264       .  A
O82         Ni87   1.860   1_554  S
O82          C92   1.265       .  A
O83         Ni88   1.971       .  S
O83          C92   1.295       .  A
O84         Ni88   1.966   1_556  S
O84          C91   1.293       .  A
O85         Ni88   1.875       .  S
O85          C90   1.268       .  A
O86         Ni88   1.880   1_556  S
O86          C89   1.270       .  A
Ni87        Ni88   2.385   1_556  S
C89         C146   1.479       .  S
C90          C95   1.480       .  S
C91         C170   1.468       .  S
C92         C119   1.500       .  S
C93         C107   1.591   1_656  S
C93         C158   1.608   1_645  S
C93         C230   1.598   1_546  S
C93         C422   1.590       .  S
C94         C131   1.596       .  S
C94         C182   1.607       .  S
C94         C251   1.603       .  S
C94         C302   1.589       .  S
C95          C96   1.394       .  A
C95         C100   1.413       .  A
C96          C97   1.408       .  A
C96         H101   1.085       .  S
C97          C98   1.441       .  A
C97         C104   1.444       .  S
C98          C99   1.411       .  A
C99         C100   1.398       .  A
C99         H102   1.076       .  S
C100        C103   1.446   1_554  S
C103        N105   1.157       .  T
C104        N106   1.158       .  T
C107        C108   1.423       .  A
C107        C112   1.424       .  A
C108        C109   1.412       .  A
C108        H113   1.079   1_455  S
C109        C110   1.422       .  A
C109        C116   1.444       .  S
C110        C111   1.421       .  A
C111        C112   1.401       .  A
C111        H114   1.081       .  S
C112        C115   1.445   1_545  S
C115        N117   1.157       .  T
C116        N118   1.157       .  T
C119        C120   1.398       .  A
C119        C124   1.427       .  A
C120        C121   1.410       .  A
C120        H125   1.085       .  S
C121        C122   1.440       .  A
C121        C128   1.444       .  S
C122        C123   1.404       .  A
C123        C124   1.392       .  A
C123        H126   1.085       .  S
C124        C127   1.447       .  S
C127        N129   1.158       .  T
C128        N130   1.158       .  T
C131        C132   1.415       .  A
C131        C136   1.425       .  A
C132        C133   1.412       .  A
C132        H137   1.067       .  S
C133        C134   1.419       .  A
C133        C140   1.444       .  S
C134        C135   1.424       .  A
C135        C136   1.411       .  A
C135        H138   1.080       .  S
C136        C139   1.445       .  S
C139        N141   1.157       .  T
C140        N142   1.157       .  T
C143        C144   1.432       .  A
C143        C148   1.429       .  A
C144        C145   1.403       .  A
C144        H149   1.083       .  S
C145        C146   1.400       .  A
C145        C152   1.444       .  S
C146        C147   1.399       .  A
C147        C148   1.406       .  A
C147        H150   1.086   1_556  S
C148        C151   1.432       .  S
C151        N153   1.156   1_556  T
C152        N154   1.157       .  T
C155        C156   1.422       .  A
C155        C160   1.430       .  A
C156        C157   1.421       .  A
C156        H161   1.076       .  S
C157        C158   1.432       .  A
C157        C164   1.446   1_455  S
C158        C159   1.419       .  A
C159        C160   1.414       .  A
C159        H162   1.075       .  S
C160        C163   1.445       .  S
C163        N165   1.157       .  T
C164        N166   1.158       .  T
C167        C168   1.417       .  A
C167        C172   1.431       .  A
C168        C169   1.385       .  A
C168        H173   1.078       .  S
C169        C170   1.407       .  A
C169        C176   1.446       .  S
C170        C171   1.399       .  A
C171        C172   1.412       .  A
C171        H174   1.085       .  S
C172        C175   1.438       .  S
C175        N177   1.156       .  T
C176        N178   1.157       .  T
C179        C180   1.412       .  A
C179        C184   1.427       .  A
C180        C181   1.411       .  A
C180        H185   1.080       .  S
C181        C182   1.433       .  A
C181        C188   1.443       .  S
C182        C183   1.421       .  A
C183        C184   1.418       .  A
C183        H186   1.077       .  S
C184        C187   1.444       .  S
C187        N189   1.158       .  T
C188        N190   1.157       .  T
C191        C192   1.398       .  A
C191        C196   1.402       .  A
C192        C193   1.402       .  A
C192        H197   1.087       .  S
C193        C194   1.428       .  A
C193        C200   1.430       .  S
C194        C195   1.425       .  A
C195        C196   1.399       .  A
C195        H198   1.083       .  S
C196        C199   1.438       .  S
C199        N201   1.155       .  T
C200        N202   1.155       .  T
C203        C204   1.399       .  A
C203        C208   1.404       .  A
C204        C205   1.414       .  A
C204        H209   1.084       .  S
C205        C206   1.435       .  A
C205        C212   1.441       .  S
C206        C207   1.419       .  A
C207        C208   1.387       .  A
C207        H210   1.076       .  S
C208        C211   1.447       .  S
C211        N213   1.157       .  T
C212        N214   1.156       .  T
C215        C216   1.409       .  A
C215        C220   1.445       .  A
C216        C217   1.390       .  A
C216        H221   1.073       .  S
C217        C218   1.414       .  A
C217        C224   1.447   1_655  S
C218        C219   1.388       .  A
C219        C220   1.397       .  A
C219        H222   1.083       .  S
C220        C223   1.448       .  S
C223        N225   1.158       .  T
C224        N226   1.158       .  T
C227        C228   1.412       .  A
C227        C232   1.433       .  A
C228        C229   1.397       .  A
C228        H233   1.071       .  S
C229        C230   1.423       .  A
C229        C236   1.432   1_554  S
C230        C231   1.426       .  A
C231        C232   1.416       .  A
C231        H234   1.083   1_565  S
C232        C235   1.446       .  S
C235        N237   1.157   1_565  T
C236        N238   1.155   1_655  T
C239        C240   1.412       .  A
C239        C244   1.441       .  A
C240        C241   1.400       .  A
C240        H245   1.079       .  S
C241        C242   1.408       .  A
C241        C248   1.441       .  S
C242        C243   1.392       .  A
C243        C244   1.405       .  A
C243        H246   1.085       .  S
C244        C247   1.444       .  S
C247        N249   1.158       .  T
C248        N250   1.156       .  T
C251        C252   1.426       .  A
C251        C256   1.424       .  A
C252        C253   1.417       .  A
C252        H257   1.076       .  S
C253        C254   1.421       .  A
C253        C260   1.444       .  S
C254        C255   1.417       .  A
C255        C256   1.402       .  A
C255        H258   1.080       .  S
C256        C259   1.438       .  S
C259        N261   1.154       .  T
C260        N262   1.157       .  T
C263        C264   1.398       .  A
C263        C268   1.416       .  A
C264        C265   1.411       .  A
C264        H269   1.085       .  S
C265        C266   1.440       .  A
C265        C272   1.439       .  S
C266        C267   1.417       .  A
C267        C268   1.382       .  A
C267        H270   1.086       .  S
C268        C271   1.448       .  S
C271        N273   1.158       .  T
C272        N274   1.158       .  T
C275        C276   1.407       .  A
C275        C280   1.403       .  A
C276        C277   1.388       .  A
C276        H281   1.086       .  S
C277        C278   1.422       .  A
C277        C284   1.445       .  S
C278        C279   1.428       .  A
C279        C280   1.412       .  A
C279        H282   1.080       .  S
C280        C283   1.442       .  S
C283        N285   1.157       .  T
C284        N286   1.158       .  T
C287        C288   1.406       .  A
C287        C292   1.434       .  A
C288        C289   1.382       .  A
C288        H293   1.077       .  S
C289        C290   1.412       .  A
C289        C296   1.447       .  S
C290        C291   1.402       .  A
C291        C292   1.415       .  A
C291        H294   1.084       .  S
C292        C295   1.444       .  S
C295        N297   1.157       .  T
C296        N298   1.157       .  T
C299        C300   1.422       .  A
C299        C304   1.430       .  A
C300        C301   1.414       .  A
C300        H305   1.074       .  S
C301        C302   1.423       .  A
C301        C308   1.446       .  S
C302        C303   1.417       .  A
C303        C304   1.406       .  A
C303        H306   1.079       .  S
C304        C307   1.446       .  S
C307        N309   1.158       .  T
C308        N310   1.157       .  T
C311        C312   1.408       .  A
C311        C316   1.408       .  A
C312        C313   1.392       .  A
C312        H317   1.084       .  S
C313        C314   1.424       .  A
C313        C320   1.448       .  S
C314        C315   1.427       .  A
C315        C316   1.410       .  A
C315        H318   1.079       .  S
C316        C319   1.443       .  S
C319        N321   1.157       .  T
C320        N322   1.157       .  T
C323        C324   1.409       .  A
C323        C328   1.393       .  A
C324        C325   1.394       .  A
C324        H329   1.086   1_565  S
C325        C326   1.423       .  A
C325        C332   1.448       .  S
C326        C327   1.433       .  A
C327        C328   1.401       .  A
C327        H330   1.073       .  S
C328        C331   1.444       .  S
C331        N333   1.157       .  T
C332        N334   1.157       .  T
C335        C336   1.428       .  A
C335        C340   1.418       .  A
C336        C337   1.409       .  A
C336        H341   1.080       .  S
C337        C338   1.404       .  A
C337        C344   1.443       .  S
C338        C339   1.411       .  A
C339        C340   1.384       .  A
C339        H342   1.085       .  S
C340        C343   1.449       .  S
C343        N345   1.158       .  T
C344        N346   1.157       .  T
C347        C348   1.391       .  A
C347        C352   1.412       .  A
C348        C349   1.403       .  A
C348        H353   1.086       .  S
C349        C350   1.440       .  A
C349        C356   1.441       .  S
C350        C351   1.417       .  A
C351        C352   1.401       .  A
C351        H354   1.078       .  S
C352        C355   1.447       .  S
C355        N357   1.157       .  T
C356        N358   1.157       .  T
C359        C360   1.409       .  A
C359        C364   1.404       .  A
C360        C361   1.381       .  A
C360        H365   1.085       .  S
C361        C362   1.421       .  A
C361        C368   1.449       .  S
C362        C363   1.429       .  A
C363        C364   1.414       .  A
C363        H366   1.080       .  S
C364        C367   1.442       .  S
C367        N369   1.157       .  T
C368        N370   1.158       .  T
C371        C372   1.398       .  A
C371        C376   1.407       .  A
C372        C373   1.389       .  A
C372        H377   1.088       .  S
C373        C374   1.428       .  A
C373        C380   1.447       .  S
C374        C375   1.425       .  A
C375        C376   1.411       .  A
C375        H378   1.084       .  S
C376        C379   1.443   1_565  S
C379        N381   1.157       .  T
C380        N382   1.158       .  T
C383        C384   1.424       .  A
C383        C388   1.420       .  A
C384        C385   1.414       .  A
C384        H389   1.081       .  S
C385        C386   1.407       .  A
C385        C392   1.441       .  S
C386        C387   1.406       .  A
C387        C388   1.386       .  A
C387        H390   1.087       .  S
C388        C391   1.447       .  S
C391        N393   1.158       .  T
C392        N394   1.157       .  T
C395        C396   1.387       .  A
C395        C400   1.411       .  A
C396        C397   1.397       .  A
C396        H401   1.086       .  S
C397        C398   1.445       .  A
C397        C404   1.444       .  S
C398        C399   1.411       .  A
C399        C400   1.398       .  A
C399        H402   1.079       .  S
C400        C403   1.445   1_556  S
C403        N405   1.157       .  T
C404        N406   1.158       .  T
C407        C408   1.424       .  A
C407        C412   1.428       .  A
C408        C409   1.410       .  A
C408        H413   1.084       .  S
C409        C410   1.407       .  A
C409        C416   1.442   1_545  S
C410        C411   1.392       .  A
C411        C412   1.381       .  A
C411        H414   1.087       .  S
C412        C415   1.447       .  S
C415        N417   1.158       .  T
C416        N418   1.157       .  T
C419        C420   1.421       .  A
C419        C424   1.429       .  A
C420        C421   1.412       .  A
C420        H425   1.075       .  S
C421        C422   1.425       .  A
C421        C428   1.445   1_655  S
C422        C423   1.416       .  A
C423        C424   1.408       .  A
C423        H426   1.076   1_556  S
C424        C427   1.444       .  S
C427        N429   1.157       .  T
C428        N430   1.157       .  T
C431        C432   1.390       .  A
C431        C436   1.402       .  A
C432        C433   1.393       .  A
C432        H437   1.088       .  S
C433        C434   1.441       .  A
C433        C440   1.443       .  S
C434        C435   1.420       .  A
C435        C436   1.407       .  A
C435        H438   1.085       .  S
C436        C439   1.436       .  S
C439        N441   1.155       .  T
C440        N442   1.158       .  T
C443        C444   1.398       .  A
C443        C448   1.398       .  A
C444        C445   1.398       .  A
C444        H449   1.086       .  S
C445        C446   1.425       .  A
C445        C452   1.431       .  S
C446        C447   1.428       .  A
C447        C448   1.395       .  A
C447        H450   1.080       .  S
C448        C451   1.445       .  S
C451        N453   1.157       .  T
C452        N454   1.154       .  T
C455        C456   1.400       .  A
C455        C460   1.415       .  A
C456        C457   1.408       .  A
C456        H461   1.084       .  S
C457        C458   1.433       .  A
C457        C464   1.442       .  S
C458        C459   1.410       .  A
C459        C460   1.385       .  A
C459        H462   1.081       .  S
C460        C463   1.448       .  S
C463        N465   1.158   1_455  T
C464        N466   1.158       .  T
C467        C468   1.430       .  A
C467        C472   1.439       .  A
C468        C469   1.407       .  A
C468        H473   1.084       .  S
C469        C470   1.398       .  A
C469        C476   1.442       .  S
C470        C471   1.385       .  A
C471        C472   1.385       .  A
C471        H474   1.088       .  S
C472        C475   1.439       .  S
C475        N477   1.157       .  T
C476        N478   1.157   1_655  T
