geometry optimzed in LAMMPS
_audit_creation_date              2020-11-30 
_audit_creation_method            'lammps2cif' 
_symmetry_space_group_name_H-M    'P1' 
_symmetry_Int_Tables_number       1 
_symmetry_cell_setting            triclinic 
loop_ 
_symmetry_equiv_pos_as_xyz 
  x,y,z 
_cell_length_a                    80.68657809882654 
_cell_length_b                    80.62177332609195 
_cell_length_c                    43.801389411848625 
_cell_angle_alpha                 89.89949765118281 
_cell_angle_beta                  90.00727782466787 
_cell_angle_gamma                 90.76061498767928 
loop_ 
_atom_site_label 
_atom_site_type_symbol 
_atom_site_fract_x 
_atom_site_fract_y 
_atom_site_fract_z 
_atom_site_charge 
N1          N  0.78836200  0.79309896  0.38334886    -0.27060
N2          N  0.77567921  0.79220931  0.36429394    -0.34920
C3          C  0.76952725  0.77665975  0.36431296     0.01280
C4          C  0.77875375  0.76710419  0.38424783     0.07300
C5          C  0.79062504  0.77803009  0.39587901    -0.05790
H6          H  0.75827267  0.77306683  0.35255972     0.07970
H7          H  0.79971570  0.77547118  0.41335076     0.09170
Cu8        Cu  0.76479877  0.81240369  0.34339213     0.44170
Cu9        Cu  0.80027905  0.81527050  0.39501738     0.41990
Cu10       Cu  0.78109426  0.85187687  0.36235512     0.43880
N11         N  0.75217263  0.83411754  0.33488227    -0.34450
N12         N  0.75824665  0.84883232  0.34236152    -0.28700
C13         C  0.74590183  0.85983619  0.34300355    -0.04800
C14         C  0.73131815  0.85169181  0.33538068     0.07410
C15         C  0.73578331  0.83541439  0.33028399     0.01210
H16         H  0.74701788  0.87212101  0.35276072     0.08860
H17         H  0.72738641  0.82489212  0.32832261     0.07940
N18         N  0.80091392  0.85263955  0.39179503    -0.35900
N19         N  0.80790473  0.83953020  0.40424966    -0.28080
C20         C  0.82000095  0.84476894  0.42324937    -0.03320
C21         C  0.82061585  0.86197635  0.42253278     0.05290
C22         C  0.80825385  0.86647072  0.40244044     0.03390
H23         H  0.82796347  0.83665107  0.43615422     0.08490
H24         H  0.80460917  0.87887810  0.39618218     0.07330
N25         N  0.72031897  0.63392339  0.42172364    -0.27060
N26         N  0.71184741  0.62690291  0.44418891    -0.34920
C27         C  0.71222161  0.61036269  0.44079169     0.01280
C28         C  0.72179029  0.60669241  0.41550703     0.07300
C29         C  0.72624879  0.62202392  0.40345720    -0.05790
H30         H  0.70857552  0.60169682  0.45853410     0.07970
H31         H  0.73536585  0.62433518  0.38580394     0.09170
Cu32       Cu  0.70706163  0.63867613  0.48513963     0.44170
Cu33       Cu  0.72985388  0.65781012  0.42408118     0.41990
Cu34       Cu  0.73494537  0.67316387  0.50131188     0.43880
N35         N  0.71066329  0.64844431  0.02837303    -0.34450
N36         N  0.72162458  0.66029707  0.03464839    -0.28700
C37         C  0.72179710  0.66288471  0.06500222    -0.04800
C38         C  0.71031280  0.65222589  0.07835626     0.07410
C39         C  0.70341638  0.64334241  0.05444802     0.01210
H40         H  0.72929079  0.67223491  0.07635402     0.08860
H41         H  0.69392528  0.63376766  0.05592155     0.07940
N42         N  0.74470543  0.68501202  0.46294907    -0.35900
N43         N  0.74268235  0.67941332  0.43485353    -0.28080
C44         C  0.74976686  0.69014527  0.41516649    -0.03320
C45         C  0.75654932  0.70332102  0.43148370     0.05290
C46         C  0.75302058  0.69958064  0.46181265     0.03390
H47         H  0.74964437  0.68854765  0.39066334     0.08490
H48         H  0.75551110  0.70719807  0.48160586     0.07330
N49         N  0.60404317  0.79883766  0.35708409    -0.27060
N50         N  0.61565713  0.79996243  0.37831667    -0.34920
C51         C  0.62155843  0.78474128  0.38409067     0.01280
C52         C  0.61338851  0.77347462  0.36547215     0.07300
C53         C  0.60243369  0.78287176  0.34854634    -0.05790
H54         H  0.63234032  0.78234269  0.39802744     0.07970
H55         H  0.59482560  0.77860395  0.32971844     0.09170
Cu56       Cu  0.62672403  0.82222716  0.39105969     0.44170
Cu57       Cu  0.59272848  0.81934617  0.33736946     0.41990
Cu58       Cu  0.61340827  0.85865059  0.35086488     0.43880
N59         N  0.64145632  0.84321546  0.38512724    -0.34450
N60         N  0.63684919  0.85626780  0.36910823    -0.28700
C61         C  0.65035016  0.86536387  0.36168923    -0.04800
C62         C  0.66415022  0.85762148  0.37352762     0.07410
C63         C  0.65798546  0.84376241  0.38859423     0.01210
H64         H  0.65024283  0.87584467  0.34624658     0.08860
H65         H  0.66518353  0.83362688  0.39757387     0.07940
N66         N  0.59053345  0.85645768  0.32997565    -0.35900
N67         N  0.58313081  0.84210513  0.32396051    -0.28080
C68         C  0.56815962  0.84505296  0.31164743    -0.03320
C69         C  0.56602964  0.86206362  0.31009580     0.05290
C70         C  0.58045034  0.86886907  0.32204379     0.03390
H71         H  0.55899428  0.83554847  0.30649780     0.08490
H72         H  0.58310358  0.88187517  0.32604698     0.07330
N73         N  0.66909119  0.63699369  0.35816420    -0.27060
N74         N  0.67914437  0.62983836  0.33842728    -0.34920
C75         C  0.67837884  0.61332548  0.34248916     0.01280
C76         C  0.66699909  0.60971549  0.36523824     0.07300
C77         C  0.66161280  0.62509960  0.37505674    -0.05790
H78         H  0.68371040  0.60450520  0.32683036     0.07970
H79         H  0.65160933  0.62743057  0.39083990     0.09170
Cu80       Cu  0.68821964  0.64087271  0.29889072     0.44170
Cu81       Cu  0.66162745  0.66166619  0.35546595     0.41990
Cu82       Cu  0.66205399  0.67384973  0.27686522     0.43880
N83         N  0.68757808  0.64999938  0.25458521    -0.34450
N84         N  0.67701441  0.66155507  0.24637291    -0.28700
C85         C  0.67809024  0.66400534  0.21611961    -0.04800
C86         C  0.68992495  0.65347190  0.20458531     0.07410
C87         C  0.69580305  0.64482698  0.22965601     0.01210
H88         H  0.67091032  0.67296108  0.20353658     0.08860
H89         H  0.70496622  0.63515130  0.22962118     0.07940
N90         N  0.65153887  0.68787303  0.31095316    -0.35900
N91         N  0.65197863  0.68411748  0.34025383    -0.28080
C92         C  0.64526398  0.69668440  0.35611728    -0.03320
C93         C  0.64037824  0.70902075  0.33571328     0.05290
C94         C  0.64449520  0.70269505  0.30725335     0.03390
H95         H  0.64427114  0.69687617  0.38072653     0.08490
H96         H  0.64271696  0.70820343  0.28508342     0.07330
N97         N  0.45122111  0.46265050  0.32812842    -0.27060
N98         N  0.45502767  0.46527433  0.35708626    -0.34920
C99         C  0.46996665  0.47279045  0.35877956     0.01280
C100        C  0.47602989  0.47480869  0.32950156     0.07300
C101        C  0.46384658  0.46820591  0.31056859    -0.05790
H102        H  0.47637143  0.47567742  0.37985310     0.07970
H103        H  0.46424105  0.46728243  0.28594466     0.09170
Cu104      Cu  0.44105654  0.45611726  0.39306006     0.44170
Cu105      Cu  0.42893081  0.45137066  0.31498488     0.41990
Cu106      Cu  0.40857484  0.42684390  0.37423314     0.43880
N107        N  0.42817927  0.44223415  0.42516930    -0.34450
N108        N  0.41652487  0.43116946  0.41844197    -0.28700
C109        C  0.41114977  0.42392323  0.44438924    -0.04800
C110        C  0.42002915  0.43066258  0.46853668     0.07410
C111        C  0.43072540  0.44217769  0.45543086     0.01210
H112        H  0.40194554  0.41406173  0.44538174     0.08860
H113        H  0.43996404  0.44972897  0.46696652     0.07940
N114        N  0.39781896  0.43228916  0.33269744    -0.35900
N115        N  0.40467376  0.44222188  0.31208613    -0.28080
C116        C  0.39255730  0.44880739  0.29498983    -0.03320
C117        C  0.37735078  0.44284058  0.30541010     0.05290
C118        C  0.38131843  0.43207924  0.32880845     0.03390
H119        H  0.39445322  0.45922389  0.27971707     0.08490
H120        H  0.37274016  0.42729784  0.34576430     0.07330
N121        N  0.56946718  0.50591497  0.31293675    -0.27060
N122        N  0.57012678  0.49492679  0.29067203    -0.34920
C123        C  0.55483528  0.48876527  0.28549701     0.01280
C124        C  0.54380169  0.49610079  0.30555917     0.07300
C125        C  0.55366810  0.50697142  0.32260496    -0.05790
H126        H  0.55219283  0.47903106  0.26920370     0.07970
H127        H  0.54997365  0.51442628  0.34183709     0.09170
Cu128      Cu  0.59204402  0.48600154  0.27286908     0.44170
Cu129      Cu  0.59052416  0.51779583  0.33053461     0.41990
Cu130      Cu  0.62976102  0.49938211  0.30939214     0.43880
N131        N  0.61372270  0.47258141  0.27171364    -0.34450
N132        N  0.62725120  0.47690076  0.28690502    -0.28700
C133        C  0.63708817  0.46361357  0.28942778    -0.04800
C134        C  0.62942688  0.45035189  0.27485130     0.07410
C135        C  0.61472441  0.45655748  0.26372566     0.01210
H136        H  0.64810814  0.46319727  0.30346597     0.08860
H137        H  0.60449402  0.44935398  0.25446622     0.07940
N138        N  0.62787951  0.52172369  0.33240211    -0.35900
N139        N  0.61366438  0.52824487  0.34081202    -0.28080
C140        C  0.61675414  0.54303373  0.35394263    -0.03320
C141        C  0.63377454  0.54614625  0.35369533     0.05290
C142        C  0.64033680  0.53223117  0.33968870     0.03390
H143        H  0.60714645  0.55116463  0.36194588     0.08490
H144        H  0.65308862  0.53013190  0.33349287     0.07330
N145        N  0.56065442  0.32292812  0.26217292    -0.27060
N146        N  0.56160705  0.33661227  0.27869874    -0.34920
C147        C  0.54649363  0.34332040  0.28054498     0.01280
C148        C  0.53540196  0.33331123  0.26475604     0.07300
C149        C  0.54479642  0.32043479  0.25348425    -0.05790
H150        H  0.54397264  0.35520658  0.29086562     0.07970
H151        H  0.54070736  0.31084471  0.23785160     0.09170
Cu152      Cu  0.58366604  0.34749717  0.29301810     0.44170
Cu153      Cu  0.58149398  0.31041065  0.24725514     0.41990
Cu154      Cu  0.62122653  0.33109802  0.26232535     0.43880
N155        N  0.60627438  0.35989962  0.29503635    -0.34450
N156        N  0.61993936  0.35424873  0.28236685    -0.28700
C157        C  0.63121723  0.36665931  0.28062694    -0.04800
C158        C  0.62437103  0.38072242  0.29321716     0.07410
C159        C  0.60859105  0.37595254  0.30219688     0.01210
H160        H  0.64289467  0.36590191  0.26860719     0.08860
H161        H  0.59884942  0.38406877  0.30978711     0.07940
N162        N  0.61868672  0.30888275  0.23913175    -0.35900
N163        N  0.60432105  0.30157907  0.23302020    -0.28080
C164        C  0.60707667  0.28777961  0.21672537    -0.03320
C165        C  0.62407509  0.28611488  0.21259769     0.05290
C166        C  0.63094804  0.29984460  0.22718582     0.03390
H167        H  0.59724184  0.27977410  0.20845206     0.08490
H168        H  0.64395209  0.30300688  0.22946389     0.07330
N169        N  0.44543763  0.36395968  0.22678460    -0.27060
N170        N  0.45120825  0.36473569  0.19857211    -0.34920
C171        C  0.46603255  0.35740915  0.19745296     0.01280
C172        C  0.46978628  0.35159397  0.22626590     0.07300
C173        C  0.45648071  0.35597536  0.24438442    -0.05790
H174        H  0.47409961  0.35753199  0.17772057     0.07970
H175        H  0.45558569  0.35476564  0.26893356     0.09170
Cu176      Cu  0.44050377  0.37843697  0.16413472     0.44170
Cu177      Cu  0.42415941  0.37632055  0.24012294     0.41990
Cu178      Cu  0.41340293  0.41029234  0.18918452     0.43880
N179        N  0.42972946  0.39520724  0.13479736    -0.34450
N180        N  0.41984093  0.40714864  0.14392528    -0.28700
C181        C  0.41457391  0.41565970  0.11938108    -0.04800
C182        C  0.42179947  0.40886284  0.09376405     0.07410
C183        C  0.43136121  0.39599031  0.10434233     0.01210
H184        H  0.40641088  0.42618751  0.12020708     0.08860
H185        H  0.43902229  0.38785493  0.09091101     0.07940
N186        N  0.39954023  0.40327249  0.22660626    -0.35900
N187        N  0.40249607  0.38994371  0.24315232    -0.28080
C188        C  0.38804025  0.38413119  0.25430509    -0.03320
C189        C  0.37515249  0.39394410  0.24361427     0.05290
C190        C  0.38329055  0.40641637  0.22730312     0.03390
H191        H  0.38685791  0.37202347  0.26476048     0.08490
H192        H  0.37793634  0.41546229  0.21230060     0.07330
N193        N  0.66438433  0.20318556  0.17582626    -0.27060
N194        N  0.67435035  0.20943483  0.19692985    -0.34920
C195        C  0.67390742  0.22605957  0.19546666     0.01280
C196        C  0.66263882  0.23061683  0.17325919     0.07300
C197        C  0.65723921  0.21571872  0.16070465    -0.05790
H198        H  0.67848937  0.23402966  0.21353658     0.07970
H199        H  0.64659929  0.21406776  0.14592598     0.09170
Cu200      Cu  0.68032713  0.19697107  0.23667099     0.44170
Cu201      Cu  0.65466595  0.17928730  0.17756508     0.41990
Cu202      Cu  0.64908930  0.16615175  0.25556087     0.43880
N203        N  0.67624153  0.18827720  0.28060568    -0.34450
N204        N  0.66410352  0.17779600  0.28772765    -0.28700
C205        C  0.66376857  0.17573894  0.31819381    -0.04800
C206        C  0.67638370  0.18527897  0.33085212     0.07410
C207        C  0.68402584  0.19308851  0.30633126     0.01210
H208        H  0.65519639  0.16761391  0.33019246     0.08860
H209        H  0.69422141  0.20192376  0.30712175     0.07940
N210        N  0.63858848  0.15386763  0.21856483    -0.35900
N211        N  0.64120710  0.15824691  0.18991423    -0.28080
C212        C  0.63376789  0.14711349  0.17148400    -0.03320
C213        C  0.62603369  0.13496943  0.18929082     0.05290
C214        C  0.62936011  0.13987348  0.21916030     0.03390
H215        H  0.63438761  0.14768473  0.14685485     0.08490
H216        H  0.62567335  0.13381880  0.24010138     0.07330
N217        N  0.59238730  0.04662539  0.13962883    -0.27060
N218        N  0.60403819  0.04896022  0.11876896    -0.34920
C219        C  0.60882956  0.06498971  0.11894498     0.01280
C220        C  0.59995310  0.07313992  0.14122775     0.07300
C221        C  0.58967630  0.06109243  0.15396636    -0.05790
H222        H  0.61925502  0.06993600  0.10615738     0.07970
H223        H  0.58164105  0.06249196  0.17354031     0.09170
Cu224      Cu  0.61629797  0.02979406  0.09730194     0.44170
Cu225      Cu  0.58238985  0.02344744  0.15046902     0.41990
Cu226      Cu  0.60168906  0.98856450  0.11280521     0.43880
N227        N  0.63050457  0.00887804  0.09051387    -0.34450
N228        N  0.62501446  0.99366757  0.09596679    -0.28700
C229        C  0.63788668  0.98327290  0.09659655    -0.04800
C230        C  0.65233156  0.99240421  0.09185593     0.07410
C231        C  0.64706717  0.00856477  0.08757860     0.01210
H232        H  0.63679582  0.97033851  0.10286047     0.08860
H233        H  0.65485158  0.01957366  0.08625315     0.07940
N234        N  0.58166163  0.98633122  0.14174231    -0.35900
N235        N  0.57485665  0.99887604  0.15627913    -0.28080
C236        C  0.56266411  0.99294310  0.17435918    -0.03320
C237        C  0.56174834  0.97586765  0.17089320     0.05290
C238        C  0.57403660  0.97214269  0.15009555     0.03390
H239        H  0.55477899  0.00054497  0.18840139     0.08490
H240        H  0.57739065  0.96001359  0.14180954     0.07330
N241        N  0.77905192  0.04193994  0.12035166    -0.27060
N242        N  0.76661707  0.04057044  0.13978232    -0.34920
C243        C  0.76012826  0.05564614  0.14437184     0.01280
C244        C  0.76894827  0.06717065  0.12701033     0.07300
C245        C  0.78092533  0.05793446  0.11221490    -0.05790
H246        H  0.74881787  0.05771503  0.15695824     0.07970
H247        H  0.78967951  0.06229204  0.09521506     0.09170
Cu248      Cu  0.75650044  0.01782055  0.15209235     0.44170
Cu249      Cu  0.79063095  0.02152911  0.10171604     0.41990
Cu250      Cu  0.77067585  0.98127729  0.11086961     0.43880
N251        N  0.74225906  0.99670908  0.14485945    -0.34450
N252        N  0.74686566  0.98391902  0.12815275    -0.28700
C253        C  0.73320432  0.97556454  0.11889019    -0.04800
C254        C  0.71942021  0.98340083  0.13051695     0.07410
C255        C  0.72568260  0.99665136  0.14696326     0.01210
H256        H  0.73320204  0.96597865  0.10163532     0.08860
H257        H  0.71862901  0.00701140  0.15538324     0.07940
N258        N  0.79379636  0.98464831  0.09069670    -0.35900
N259        N  0.80057828  0.99947094  0.08650399    -0.28080
C260        C  0.81527138  0.99782253  0.07263246    -0.03320
C261        C  0.81825016  0.98106608  0.06823215     0.05290
C262        C  0.80418741  0.97311495  0.07985986     0.03390
H263        H  0.82306801  0.00827792  0.06651077     0.08490
H264        H  0.80182395  0.95989717  0.08113757     0.07330
N265        N  0.71360430  0.20365781  0.11086269    -0.27060
N266        N  0.70219152  0.20925207  0.09198511    -0.34920
C267        C  0.70027414  0.22555438  0.09674915     0.01280
C268        C  0.71131494  0.23086385  0.11921688     0.07300
C269        C  0.71938776  0.21638984  0.12779235    -0.05790
H270        H  0.69277335  0.23319777  0.08210348     0.07970
H271        H  0.73001220  0.21530039  0.14258168     0.09170
Cu272      Cu  0.69422975  0.19702927  0.05288507     0.44170
Cu273      Cu  0.72388500  0.18010087  0.10799086     0.41990
Cu274      Cu  0.72070554  0.16374819  0.03200115     0.43880
N275        N  0.69520470  0.18753234  0.00890867    -0.34450
N276        N  0.70576338  0.17589793  0.00109586    -0.28700
C277        C  0.70499840  0.17354551  0.47078559    -0.04800
C278        C  0.69328300  0.18410996  0.45886251     0.07410
C279        C  0.68728073  0.19281135  0.48369458     0.01210
H280        H  0.71242095  0.16475744  0.45833737     0.08860
H281        H  0.67835546  0.20270291  0.48332157     0.07940
N282        N  0.73268781  0.15166181  0.06714201    -0.35900
N283        N  0.73363846  0.15728468  0.09540399    -0.28080
C284        C  0.74124311  0.14587300  0.11283811    -0.03320
C285        C  0.74538274  0.13249319  0.09451236     0.05290
C286        C  0.73964021  0.13665343  0.06574107     0.03390
H287        H  0.74343277  0.14714702  0.13709171     0.08490
H288        H  0.73975120  0.12905226  0.04544110     0.07330
N289        N  0.32411135  0.01243792  0.26837780    -0.27060
N290        N  0.32480667  0.99911727  0.28597491    -0.34920
C291        C  0.34020676  0.99299629  0.28483429     0.01280
C292        C  0.34970167  0.00297670  0.26583732     0.07300
C293        C  0.33907808  0.01509612  0.25556782    -0.05790
H294        H  0.34377648  0.98124313  0.29462997     0.07970
H295        H  0.34162734  0.02424154  0.23802369     0.09170
Cu296      Cu  0.30414924  0.98734714  0.30456966     0.44170
Cu297      Cu  0.30218929  0.02444694  0.25800776     0.41990
Cu298      Cu  0.26485197  0.00532931  0.28923124     0.43880
N299        N  0.28182785  0.97468516  0.31011994    -0.34450
N300        N  0.26729944  0.98138381  0.30445596    -0.28700
C301        C  0.25577813  0.96929280  0.30168510    -0.04800
C302        C  0.26338883  0.95424137  0.30593338     0.07410
C303        C  0.27989095  0.95813070  0.31123052     0.01210
H304        H  0.24342710  0.97116513  0.29280990     0.08860
H305        H  0.29005606  0.94950900  0.31129945     0.07940
N306        N  0.26492665  0.02597742  0.26165013    -0.35900
N307        N  0.27837550  0.03278478  0.24948060    -0.28080
C308        C  0.27381178  0.04526849  0.23102074    -0.03320
C309        C  0.25668693  0.04635221  0.23176627     0.05290
C310        C  0.25150337  0.03388295  0.25138199     0.03390
H311        H  0.28234536  0.05313166  0.21836629     0.08490
H312        H  0.23890479  0.03049318  0.25735979     0.07330
N313        N  0.47852303  0.94132194  0.21987625    -0.27060
N314        N  0.48127488  0.92832511  0.20235940    -0.34920
C315        C  0.49766997  0.92598282  0.20045332     0.01280
C316        C  0.50584936  0.93861050  0.21612797     0.07300
C317        C  0.49315229  0.94776101  0.22892735    -0.05790
H318        H  0.50310547  0.91756564  0.18422487     0.07970
H319        H  0.49435232  0.95990833  0.23917156     0.09170
Cu320      Cu  0.46551277  0.92079351  0.16768141     0.44170
Cu321      Cu  0.45632482  0.95398199  0.22090254     0.41990
Cu322      Cu  0.43760062  0.95338607  0.14710728     0.43880
N323        N  0.45673099  0.92425034  0.12368885    -0.34450
N324        N  0.44738203  0.93692460  0.11597841    -0.28700
C325        C  0.44556570  0.93717624  0.08550674    -0.04800
C326        C  0.45410633  0.92397161  0.07337703     0.07410
C327        C  0.46105273  0.91601760  0.09825413     0.01210
H328        H  0.43847953  0.94628023  0.07310043     0.08860
H329        H  0.46920748  0.90547978  0.09784804     0.07940
N330        N  0.42793309  0.96633839  0.18357481    -0.35900
N331        N  0.43467291  0.96648815  0.21104812    -0.28080
C332        C  0.42464835  0.97464755  0.23026344    -0.03320
C333        C  0.41085147  0.97979957  0.21407421     0.05290
C334        C  0.41342540  0.97428569  0.18453377     0.03390
H335        H  0.42675657  0.97576203  0.25456265     0.08490
H336        H  0.40503982  0.97532031  0.16537390     0.07330
N337        N  0.42628273  0.86732195  0.30823962    -0.27060
N338        N  0.41981643  0.86856913  0.33583573    -0.34920
C339        C  0.40450516  0.86187368  0.33581543     0.01280
C340        C  0.40093185  0.85617075  0.30673423     0.07300
C341        C  0.41509386  0.85983460  0.28977357    -0.05790
H342        H  0.39630162  0.86179296  0.35535214     0.07970
H343        H  0.41714549  0.85732543  0.26584109     0.09170
Cu344      Cu  0.43119411  0.88076031  0.37181029     0.44170
Cu345      Cu  0.44992151  0.87660027  0.29805241     0.41990
Cu346      Cu  0.46283775  0.90971908  0.35035819     0.43880
N347        N  0.44309809  0.89615325  0.40273304    -0.34450
N348        N  0.45413310  0.90757842  0.39466140    -0.28700
C349        C  0.45987097  0.91524155  0.41988898    -0.04800
C350        C  0.45202834  0.90825136  0.44506092     0.07410
C351        C  0.44150053  0.89618483  0.43324437     0.01210
H352        H  0.46957905  0.92462014  0.41992553     0.08860
H353        H  0.43329941  0.88797326  0.44589729     0.07940
N354        N  0.47735488  0.90072885  0.31541474    -0.35900
N355        N  0.47348311  0.88762903  0.29864274    -0.28080
C356        C  0.48756761  0.88120082  0.28752052    -0.03320
C357        C  0.50099445  0.89055260  0.29810723     0.05290
C358        C  0.49382228  0.90316281  0.31483657     0.03390
H359        H  0.48809422  0.86943105  0.27576989     0.08490
H360        H  0.50000626  0.91243206  0.32862389     0.07330
N361        N  0.30848387  0.82502745  0.27889883    -0.27060
N362        N  0.30842588  0.83832082  0.26125692    -0.34920
C363        C  0.32403228  0.84412909  0.25816232     0.01280
C364        C  0.33453691  0.83412611  0.27489498     0.07300
C365        C  0.32418017  0.82200352  0.28747828    -0.05790
H366        H  0.32728174  0.85566073  0.24685000     0.07970
H367        H  0.32758037  0.81216894  0.30296059     0.09170
Cu368      Cu  0.28693887  0.85031015  0.24884977     0.44170
Cu369      Cu  0.28681193  0.81362707  0.29466332     0.41990
Cu370      Cu  0.24903656  0.83765313  0.28707388     0.43880
N371        N  0.26642239  0.86520706  0.25317670    -0.34450
N372        N  0.25281683  0.86092396  0.26816892    -0.28700
C373        C  0.24415784  0.87465226  0.27441880    -0.04800
C374        C  0.25286606  0.88829765  0.26317595     0.07410
C375        C  0.26673573  0.88170853  0.24937744     0.01210
H376        H  0.23322928  0.87472756  0.28868003     0.08860
H377        H  0.27744986  0.88859114  0.24117176     0.07940
N378        N  0.24995767  0.81461665  0.30788396    -0.35900
N379        N  0.26362040  0.80587009  0.31043012    -0.28080
C380        C  0.25990821  0.79145410  0.32441250    -0.03320
C381        C  0.24307144  0.79099961  0.33113625     0.05290
C382        C  0.23722952  0.80603576  0.32030459     0.03390
H383        H  0.26881463  0.78179521  0.32850074     0.08490
H384        H  0.22471316  0.81058444  0.32116716     0.07330
N385        N  0.21056783  0.70130348  0.35581281    -0.27060
N386        N  0.20004620  0.70686092  0.33520758    -0.34920
C387        C  0.19961434  0.72345198  0.33680550     0.01280
C388        C  0.21068896  0.72889929  0.35895582     0.07300
C389        C  0.21704330  0.71432422  0.37111276    -0.05790
H390        H  0.19372168  0.73103548  0.31965986     0.07970
H391        H  0.22697378  0.71314445  0.38744820     0.09170
Cu392      Cu  0.19218216  0.69372824  0.29731591     0.44170
Cu393      Cu  0.22015175  0.67744158  0.35509858     0.41990
Cu394      Cu  0.21960278  0.66114490  0.27802835     0.43880
N395        N  0.19384511  0.68420379  0.25366086    -0.34450
N396        N  0.20478278  0.67286400  0.24619578    -0.28700
C397        C  0.20433737  0.67053698  0.21583044    -0.04800
C398        C  0.19243574  0.68082623  0.20361960     0.07410
C399        C  0.18602403  0.68933177  0.22828315     0.01210
H400        H  0.21204758  0.66192518  0.20356494     0.08860
H401        H  0.17685160  0.69899100  0.22773068     0.07940
N402        N  0.23102733  0.64951245  0.31446989    -0.35900
N403        N  0.23094334  0.65507884  0.34283416    -0.28080
C404        C  0.23846195  0.64393424  0.36093694    -0.03320
C405        C  0.24360406  0.63075150  0.34304701     0.05290
C406        C  0.23856487  0.63476961  0.31374248     0.03390
H407        H  0.23986779  0.64523772  0.38537887     0.08490
H408        H  0.23949872  0.62720286  0.29348712     0.07330
N409        N  0.27698565  0.54045384  0.37419523    -0.27060
N410        N  0.26408442  0.53939066  0.39265100    -0.34920
C411        C  0.25751660  0.55452007  0.39594107     0.01280
C412        C  0.26674864  0.56579267  0.37877899     0.07300
C413        C  0.27904126  0.55633952  0.36537041    -0.05790
H414        H  0.24598160  0.55677976  0.40768407     0.07970
H415        H  0.28824967  0.56048917  0.34902039     0.09170
Cu416      Cu  0.25372399  0.51698210  0.40632796     0.44170
Cu417      Cu  0.28935141  0.51972549  0.35837354     0.41990
Cu418      Cu  0.26963844  0.47949857  0.37208064     0.43880
N419        N  0.24031264  0.49507059  0.40253175    -0.34450
N420        N  0.24568389  0.48166537  0.38853429    -0.28700
C421        C  0.23259811  0.47188682  0.38142634    -0.04800
C422        C  0.21829737  0.47957733  0.39129247     0.07410
C423        C  0.22376957  0.49407747  0.40502120     0.01210
H424        H  0.23336047  0.46090760  0.36737921     0.08860
H425        H  0.21611592  0.50430512  0.41207827     0.07940
N426        N  0.29274611  0.48251870  0.35196223    -0.35900
N427        N  0.29960398  0.49716571  0.34623428    -0.28080
C428        C  0.31440954  0.49495214  0.33296627    -0.03320
C429        C  0.31725798  0.47804570  0.33053804     0.05290
C430        C  0.30310695  0.47059331  0.34270817     0.03390
H431        H  0.32241266  0.50507801  0.32585405     0.08490
H432        H  0.30066575  0.45745485  0.34549204     0.07330
N433        N  0.16187816  0.70092478  0.42102581    -0.27060
N434        N  0.17211797  0.70686768  0.44198176    -0.34920
C435        C  0.17268417  0.72347927  0.43970016     0.01280
C436        C  0.16188336  0.72837551  0.41693134     0.07300
C437        C  0.15572005  0.71362388  0.40494242    -0.05790
H438        H  0.17770964  0.73142710  0.45740553     0.07970
H439        H  0.14519113  0.71236362  0.38978379     0.09170
Cu440      Cu  0.17786054  0.69436109  0.48180933     0.44170
Cu441      Cu  0.15038858  0.67785475  0.42395365     0.41990
Cu442      Cu  0.14711762  0.66315062  0.50134917     0.43880
N443        N  0.17449596  0.68526118  0.02565259    -0.34450
N444        N  0.16256621  0.67459032  0.03300442    -0.28700
C445        C  0.16258503  0.67234734  0.06341408    -0.04800
C446        C  0.17522694  0.68194721  0.07579764     0.07410
C447        C  0.18252525  0.68999052  0.05118431     0.01210
H448        H  0.15416970  0.66412816  0.07557055     0.08860
H449        H  0.19259049  0.69897930  0.05181588     0.07940
N450        N  0.13517140  0.65181585  0.46485253    -0.35900
N451        N  0.13645085  0.65714484  0.43638217    -0.28080
C452        C  0.12870398  0.64627142  0.41781154    -0.03320
C453        C  0.12223977  0.63350382  0.43543851     0.05290
C454        C  0.12673187  0.63731951  0.46509580     0.03390
H455        H  0.12890679  0.64692909  0.39314072     0.08490
H456        H  0.12507783  0.62953031  0.48503153     0.07330
N457        N  0.09331479  0.54436486  0.38071944    -0.27060
N458        N  0.10736705  0.54508191  0.36521077    -0.34920
C459        C  0.11398594  0.56037401  0.36780024     0.01280
C460        C  0.10362592  0.56983720  0.38565900     0.07300
C461        C  0.09055625  0.55931776  0.39332831    -0.05790
H462        H  0.12607847  0.56397734  0.35919260     0.07970
H463        H  0.08066843  0.56185289  0.40926490     0.09170
Cu464      Cu  0.11917209  0.52470648  0.34692641     0.44170
Cu465      Cu  0.08088478  0.52217323  0.38991459     0.41990
Cu466      Cu  0.10206371  0.48500278  0.36397637     0.43880
N467        N  0.13207145  0.50291371  0.34084054    -0.34450
N468        N  0.12564930  0.48816371  0.34717610    -0.28700
C469        C  0.13791615  0.47715283  0.34983984    -0.04800
C470        C  0.15281270  0.48531879  0.34479072     0.07410
C471        C  0.14862033  0.50162649  0.33910975     0.01210
H472        H  0.13632984  0.46485297  0.35941357     0.08860
H473        H  0.15707963  0.51215311  0.33865877     0.07940
N474        N  0.08217033  0.48476111  0.39327865    -0.35900
N475        N  0.07437316  0.49810833  0.40267454    -0.28080
C476        C  0.06288713  0.49351741  0.42333795    -0.03320
C477        C  0.06367003  0.47643771  0.42764886     0.05290
C478        C  0.07602115  0.47139529  0.40786893     0.03390
H479        H  0.05462933  0.50214828  0.43410989     0.08490
H480        H  0.08055920  0.45897226  0.40457834     0.07330
N481        N  0.07068218  0.00972789  0.04591841    -0.27060
N482        N  0.07063296  0.99834417  0.02428652    -0.34920
C483        C  0.05501503  0.99307996  0.01937069     0.01280
C484        C  0.04452632  0.00143792  0.03894089     0.07300
C485        C  0.05497433  0.01199805  0.05538414    -0.05790
H486        H  0.05172955  0.98314073  0.00387567     0.07970
H487        H  0.05164357  0.01985273  0.07433602     0.09170
Cu488      Cu  0.09179899  0.98737989  0.00767458     0.44170
Cu489      Cu  0.09262026  0.01967435  0.06369218     0.41990
Cu490      Cu  0.13017773  0.99654188  0.04574978     0.43880
N491        N  0.11196561  0.97186811  0.00668195    -0.34450
N492        N  0.12585858  0.97481736  0.02177398    -0.28700
C493        C  0.13451534  0.96070342  0.02353892    -0.04800
C494        C  0.12560832  0.94822613  0.00888662     0.07410
C495        C  0.11143928  0.95586728  0.99833190     0.01210
H496        H  0.14559784  0.95926562  0.03713799     0.08860
H497        H  0.10050454  0.94979078  0.48914548     0.07940
N498        N  0.13005792  0.01849398  0.07021429    -0.35900
N499        N  0.11651937  0.02684536  0.07672227    -0.28080
C500        C  0.12091658  0.04092209  0.09117862    -0.03320
C501        C  0.13805631  0.04149157  0.09414408     0.05290
C502        C  0.14337867  0.02701725  0.08042088     0.03390
H503        H  0.11225377  0.05045762  0.09737455     0.08490
H504        H  0.15603547  0.02314532  0.07715263     0.07330
N505        N  0.95150479  0.97126993  0.06180315    -0.27060
N506        N  0.95540839  0.97302344  0.09094043    -0.34920
C507        C  0.97023344  0.98074206  0.09318917     0.01280
C508        C  0.97604206  0.98390435  0.06407549     0.07300
C509        C  0.96391546  0.97764240  0.04469003    -0.05790
H510        H  0.97691458  0.98262266  0.11434716     0.07970
H511        H  0.96446089  0.97702720  0.02003995     0.09170
Cu512      Cu  0.94217849  0.96178538  0.12591064     0.44170
Cu513      Cu  0.92990864  0.95912648  0.04747556     0.41990
Cu514      Cu  0.91129326  0.93141159  0.10337844     0.43880
N515        N  0.93006361  0.94606336  0.15616436    -0.34450
N516        N  0.91903623  0.93464523  0.14801324    -0.28700
C517        C  0.91379526  0.92642310  0.17305344    -0.04800
C518        C  0.92209021  0.93290010  0.19812026     0.07410
C519        C  0.93233081  0.94527283  0.18647588     0.01210
H520        H  0.90494856  0.91622926  0.17281427     0.08860
H521        H  0.94092609  0.95307119  0.19907805     0.07940
N522        N  0.90002478  0.93763786  0.06270716    -0.35900
N523        N  0.90629853  0.94857049  0.04322207    -0.28080
C524        C  0.89380778  0.95509897  0.02702684    -0.03320
C525        C  0.87892530  0.94815128  0.03704733     0.05290
C526        C  0.88351628  0.93678581  0.05904035     0.03390
H527        H  0.89514809  0.96611937  0.51305972     0.08490
H528        H  0.87525460  0.93108192  0.07557933     0.07330
N529        N  0.90313526  0.89546527  0.47376986    -0.27060
N530        N  0.90009513  0.90861734  0.45678326    -0.34920
C531        C  0.88374860  0.91132367  0.45671071     0.01280
C532        C  0.87574488  0.89851772  0.47232216     0.07300
C533        C  0.88866009  0.88909789  0.48382330    -0.05790
H534        H  0.87811907  0.91995202  0.44107409     0.07970
H535        H  0.88761651  0.87679197  0.99350919     0.09170
Cu536      Cu  0.91385620  0.91454465  0.41849821     0.44170
Cu537      Cu  0.92516606  0.88250903  0.47202527     0.41990
Cu538      Cu  0.93948782  0.88058092  0.39500546     0.43880
N539        N  0.91985260  0.90984468  0.37336805    -0.34450
N540        N  0.92903654  0.89720119  0.36486884    -0.28700
C541        C  0.93057072  0.89735030  0.33434479    -0.04800
C542        C  0.92163926  0.91050084  0.32308523     0.07410
C543        C  0.91496796  0.91817918  0.34834940     0.01210
H544        H  0.93789091  0.88870605  0.32135693     0.08860
H545        H  0.90753540  0.92924843  0.34861275     0.07940
N546        N  0.95068187  0.86808918  0.43053828    -0.35900
N547        N  0.94594575  0.86931942  0.45924011    -0.28080
C548        C  0.95704514  0.86165998  0.47712223    -0.03320
C549        C  0.96947760  0.85515478  0.45874666     0.05290
C550        C  0.96478972  0.85951024  0.42926403     0.03390
H551        H  0.95634763  0.86172281  0.50171674     0.08490
H552        H  0.97146573  0.85741541  0.40828097     0.07330
N553        N  0.06020995  0.82290685  0.49103886    -0.27060
N554        N  0.05969026  0.83423716  0.01276799    -0.34920
C555        C  0.04407291  0.83973192  0.01525862     0.01280
C556        C  0.03435682  0.83159013  0.49381835     0.07300
C557        C  0.04499829  0.82098215  0.47893627    -0.05790
H558        H  0.04039209  0.84995534  0.02960311     0.07970
H559        H  0.04211283  0.81311546  0.45961693     0.09170
Cu560      Cu  0.08089778  0.84443636  0.03230577     0.44170
Cu561      Cu  0.08195513  0.81215737  0.47629884     0.41990
Cu562      Cu  0.12048321  0.82904358  0.00550890     0.43880
N563        N  0.10320482  0.85734076  0.03621518    -0.34450
N564        N  0.11752456  0.85196484  0.02571015    -0.28700
C565        C  0.12831245  0.86479873  0.02402255    -0.04800
C566        C  0.12048023  0.87887322  0.03422363     0.07410
C567        C  0.10459741  0.87368153  0.04167497     0.01210
H568        H  0.14019895  0.86433119  0.01264906     0.08860
H569        H  0.09421206  0.88160725  0.04656188     0.07940
N570        N  0.11906851  0.80821816  0.47811644    -0.35900
N571        N  0.10500614  0.80246242  0.46662830    -0.28080
C572        C  0.10814420  0.78913039  0.44937347    -0.03320
C573        C  0.12504245  0.78611575  0.45026672     0.05290
C574        C  0.13154439  0.79861035  0.46864260     0.03390
H575        H  0.09865390  0.78222848  0.43728112     0.08490
H576        H  0.14434471  0.80038042  0.47535924     0.07330
N577        N  0.29094259  0.29018053  0.14781695    -0.27060
N578        N  0.27784932  0.28908885  0.12971640    -0.34920
C579        C  0.27218394  0.27334518  0.12972373     0.01280
C580        C  0.28225794  0.26403409  0.14843098     0.07300
C581        C  0.29403828  0.27507952  0.15952452    -0.05790
H582        H  0.26077059  0.26926809  0.11896242     0.07970
H583        H  0.30312466  0.27267123  0.17709451     0.09170
Cu584      Cu  0.26585380  0.30930149  0.11100934     0.44170
Cu585      Cu  0.30157756  0.31259447  0.16127594     0.41990
Cu586      Cu  0.27981063  0.34924566  0.13610280     0.43880
N587        N  0.25253532  0.33079053  0.10403691    -0.34450
N588        N  0.25763277  0.34546728  0.11388691    -0.28700
C589        C  0.24488682  0.35600761  0.11337129    -0.04800
C590        C  0.23108193  0.34758736  0.10254746     0.07410
C591        C  0.23640980  0.33167098  0.09661823     0.01210
H592        H  0.24518878  0.36826197  0.12339963     0.08860
H593        H  0.22863000  0.32101790  0.09136521     0.07940
N594        N  0.29954134  0.34982526  0.16585864    -0.35900
N595        N  0.30745584  0.33654316  0.17537214    -0.28080
C596        C  0.31929307  0.34129257  0.19523999    -0.03320
C597        C  0.31871948  0.35839709  0.19851546     0.05290
C598        C  0.30607564  0.36334002  0.17933751     0.03390
H599        H  0.32798821  0.33291580  0.20568583     0.08490
H600        H  0.30189795  0.37584696  0.17531073     0.07330
N601        N  0.22833941  0.13042287  0.18125656    -0.27060
N602        N  0.21431621  0.12757348  0.19604626    -0.34920
C603        C  0.21106868  0.11122044  0.19597025     0.01280
C604        C  0.22414674  0.10310097  0.18217471     0.07300
C605        C  0.23455061  0.11586385  0.17220692    -0.05790
H606        H  0.20156151  0.10561102  0.21013637     0.07970
H607        H  0.24715013  0.11462124  0.16425927     0.09170
Cu608      Cu  0.20604049  0.14224300  0.23139520     0.44170
Cu609      Cu  0.24199845  0.15234890  0.18412886     0.41990
Cu610      Cu  0.23798002  0.16984645  0.25826525     0.43880
N611        N  0.20837234  0.14920054  0.27672828    -0.34450
N612        N  0.22075452  0.15861976  0.28664136    -0.28700
C613        C  0.22020676  0.15933638  0.31722791    -0.04800
C614        C  0.20679986  0.14992826  0.32720022     0.07410
C615        C  0.19956564  0.14364729  0.30085312     0.01210
H616        H  0.22890582  0.16629160  0.33116726     0.08860
H617        H  0.18910771  0.13516230  0.29930179     0.07940
N618        N  0.25205628  0.18075213  0.22419121    -0.35900
N619        N  0.25376625  0.17432683  0.19666854    -0.28080
C620        C  0.26194879  0.18530926  0.17882053    -0.03320
C621        C  0.26536236  0.19935910  0.19597628     0.05290
C622        C  0.25885763  0.19602916  0.22455510     0.03390
H623        H  0.26385362  0.18382360  0.15453501     0.08490
H624        H  0.25803347  0.20455361  0.24353056     0.07330
N625        N  0.14623601  0.17543535  0.08933094    -0.27060
N626        N  0.14586373  0.18016254  0.06043363    -0.34920
C627        C  0.13790685  0.19463671  0.05826034     0.01280
C628        C  0.13290971  0.19939407  0.08716638     0.07300
C629        C  0.13848756  0.18689183  0.10634467    -0.05790
H630        H  0.13681027  0.20164792  0.03730770     0.07970
H631        H  0.13738741  0.18636268  0.13093936     0.09170
Cu632      Cu  0.15797172  0.16818126  0.02531402     0.44170
Cu633      Cu  0.15821536  0.15401085  0.10374623     0.41990
Cu634      Cu  0.18839655  0.13926642  0.04870596     0.43880
N635        N  0.17396411  0.15687585  0.99511278    -0.34450
N636        N  0.18591136  0.14693573  0.00401225    -0.28700
C637        C  0.19432755  0.14175075  0.47939483    -0.04800
C638        C  0.18729563  0.14879962  0.45369787     0.07410
C639        C  0.17439096  0.15827763  0.46456262     0.01210
H640        H  0.20443748  0.13308629  0.48016803     0.08860
H641        H  0.16605569  0.16582419  0.45127972     0.07940
N642        N  0.18120436  0.12620465  0.08706122    -0.35900
N643        N  0.16986352  0.13110661  0.10666722    -0.28080
C644        C  0.16428987  0.11778568  0.12231489    -0.03320
C645        C  0.17215749  0.10363285  0.11155319     0.05290
C646        C  0.18301959  0.10975598  0.08952133     0.03390
H647        H  0.15369551  0.11821098  0.13735336     0.08490
H648        H  0.18979928  0.10274506  0.07283137     0.07330
N649        N  0.10115031  0.29117184  0.10760057    -0.27060
N650        N  0.11418023  0.29259111  0.12570242    -0.34920
C651        C  0.12045136  0.27747024  0.13075969     0.01280
C652        C  0.11092615  0.26580785  0.11515710     0.07300
C653        C  0.09875993  0.27504319  0.10075692    -0.05790
H654        H  0.13199553  0.27541043  0.14260100     0.07970
H655        H  0.08941780  0.27051982  0.08502262     0.09170
Cu656      Cu  0.12526697  0.31508452  0.13681269     0.44170
Cu657      Cu  0.08914212  0.31156190  0.08905760     0.41990
Cu658      Cu  0.11251335  0.35034620  0.09227499     0.43880
N659        N  0.13927574  0.33662766  0.13237478    -0.34450
N660        N  0.13506241  0.34913723  0.11457881    -0.28700
C661        C  0.14850240  0.35877799  0.10943469    -0.04800
C662        C  0.16177510  0.35205610  0.12489491     0.07410
C663        C  0.15542664  0.33811690  0.13935591     0.01210
H664        H  0.14898532  0.36881451  0.09301747     0.08860
H665        H  0.16253548  0.32850240  0.15032637     0.07940
N666        N  0.08947673  0.34792739  0.07187302    -0.35900
N667        N  0.08083782  0.33391144  0.07112096    -0.28080
C668        C  0.06607621  0.33681509  0.05810120    -0.03320
C669        C  0.06525792  0.35350996  0.05014775     0.05290
C670        C  0.08050575  0.36007201  0.05920396     0.03390
H671        H  0.05638889  0.32750375  0.05588799     0.08490
H672        H  0.08488197  0.37274229  0.05745622     0.07330
N673        N  0.92949701  0.36340122  0.06564644    -0.27060
N674        N  0.92709776  0.36101830  0.09519772    -0.34920
C675        C  0.91212085  0.35396180  0.09965771     0.01280
C676        C  0.90453761  0.35191131  0.07163491     0.07300
C677        C  0.91585716  0.35814103  0.05051834    -0.05790
H678        H  0.90666126  0.35164802  0.12184613     0.07970
H679        H  0.91411012  0.35918933  0.02610560     0.09170
Cu680      Cu  0.94248013  0.37045345  0.12876076     0.44170
Cu681      Cu  0.95119882  0.37434669  0.04841450     0.41990
Cu682      Cu  0.97294625  0.40001497  0.10449852     0.43880
N683        N  0.95549575  0.38554242  0.15857649    -0.34450
N684        N  0.96651077  0.39681724  0.14973187    -0.28700
C685        C  0.97205446  0.40519073  0.17432227    -0.04800
C686        C  0.96382707  0.39904643  0.19971615     0.07410
C687        C  0.95347838  0.38658300  0.18890203     0.01210
H688        H  0.98085836  0.41542364  0.17358534     0.08860
H689        H  0.94478970  0.37909754  0.20194894     0.07940
N690        N  0.98248159  0.39392450  0.06242419    -0.35900
N691        N  0.97525755  0.38378658  0.04266857    -0.28080
C692        C  0.98696547  0.37779535  0.02387438    -0.03320
C693        C  0.00235433  0.38422558  0.03263994     0.05290
C694        C  0.99876423  0.39474742  0.05660441     0.03390
H695        H  0.98458767  0.36806023  0.50747096     0.08490
H696        H  0.00765936  0.40028606  0.07215422     0.07330
N697        N  0.80890148  0.32791829  0.07310394    -0.27060
N698        N  0.80776004  0.33669603  0.04776359    -0.34920
C699        C  0.82295938  0.34164106  0.03887422     0.01280
C700        C  0.83447381  0.33592753  0.05982189     0.07300
C701        C  0.82500503  0.32707024  0.08107738    -0.05790
H702        H  0.82515243  0.34939206  0.01913728     0.07970
H703        H  0.82937950  0.32116619  0.10169464     0.09170
Cu704      Cu  0.78565464  0.34547961  0.03097541     0.44170
Cu705      Cu  0.78784281  0.31911382  0.09594179     0.41990
Cu706      Cu  0.75061254  0.34337203  0.08076547     0.43880
N707        N  0.76755431  0.36326575  0.03210395    -0.34450
N708        N  0.75539575  0.36344180  0.05218672    -0.28700
C709        C  0.74919118  0.37885811  0.05338015    -0.04800
C710        C  0.75799691  0.38902085  0.03308060     0.07410
C711        C  0.76936761  0.37839290  0.01985289     0.01210
H712        H  0.74004856  0.38249625  0.06995160     0.08860
H713        H  0.77962330  0.38162916  0.00508649     0.07940
N714        N  0.75043473  0.32050789  0.10274200    -0.35900
N715        N  0.76386444  0.31178429  0.10846653    -0.28080
C716        C  0.75919138  0.29676892  0.11911412    -0.03320
C717        C  0.74201863  0.29585011  0.11977922     0.05290
C718        C  0.73693034  0.31123742  0.10946418     0.03390
H719        H  0.76764607  0.28673183  0.12346719     0.08490
H720        H  0.72435493  0.31516367  0.10544856     0.07330
N721        N  0.94063299  0.46594638  0.45867878    -0.27060
N722        N  0.93537348  0.46606098  0.43013618    -0.34920
C723        C  0.92152445  0.47502779  0.42829831     0.01280
C724        C  0.91765834  0.48095976  0.45710439     0.07300
C725        C  0.93023636  0.47498545  0.47578130    -0.05790
H726        H  0.91435817  0.47636799  0.40760020     0.07970
H727        H  0.93174104  0.47674178  0.00005679     0.09170
Cu728      Cu  0.94607005  0.45288690  0.39505011     0.44170
Cu729      Cu  0.96118516  0.45253558  0.47277366     0.41990
Cu730      Cu  0.97487179  0.42219197  0.41721138     0.43880
N731        N  0.95736520  0.43732293  0.36425121    -0.34450
N732        N  0.96800605  0.42583193  0.37240457    -0.28700
C733        C  0.97326908  0.41784258  0.34735314    -0.04800
C734        C  0.96530548  0.42452105  0.32233404     0.07410
C735        C  0.95525053  0.43675870  0.33388134     0.01210
H736        H  0.98175852  0.40756717  0.34749912     0.08860
H737        H  0.94680161  0.44448300  0.32120827     0.07940
N738        N  0.98768067  0.42803327  0.45639064    -0.35900
N739        N  0.98333224  0.43965020  0.47588717    -0.28080
C740        C  0.99705555  0.44547380  0.98982259    -0.03320
C741        C  0.01090919  0.43770987  0.47759305     0.05290
C742        C  0.00413540  0.42624350  0.45736200     0.03390
H743        H  0.99703385  0.45658273  0.00356488     0.08490
H744        H  0.01061704  0.41970407  0.43965336     0.07330
N745        N  0.82678977  0.51577626  0.47945755    -0.27060
N746        N  0.82720594  0.50516776  0.50244276    -0.34920
C747        C  0.84276598  0.49982351  0.50605452     0.01280
C748        C  0.85281406  0.50730983  0.48422685     0.07300
C749        C  0.84219310  0.51749828  0.46788256    -0.05790
H750        H  0.84622384  0.49021048  0.52199894     0.07970
H751        H  0.84519622  0.52519289  0.44837960     0.09170
Cu752      Cu  0.80636027  0.49568916  0.02405806     0.44170
Cu753      Cu  0.80475061  0.52566554  0.46309092     0.41990
Cu754      Cu  0.76680862  0.50718042  0.49553187     0.43880
N755        N  0.78491826  0.48218230  0.03268761    -0.34450
N756        N  0.77027101  0.48613844  0.02160073    -0.28700
C757        C  0.75996437  0.47293098  0.02396592    -0.04800
C758        C  0.76861859  0.46001671  0.03695414     0.07410
C759        C  0.78434123  0.46639681  0.04238256     0.01210
H760        H  0.74789735  0.47209083  0.01326294     0.08860
H761        H  0.79513028  0.45942015  0.04901111     0.07940
N762        N  0.76722592  0.52680028  0.46509690    -0.35900
N763        N  0.78078959  0.53328360  0.45276810    -0.28080
C764        C  0.77648753  0.54613332  0.43496633    -0.03320
C765        C  0.75937404  0.54792625  0.43618533     0.05290
C766        C  0.75402064  0.53537875  0.45566432     0.03390
H767        H  0.78532547  0.55398468  0.42304493     0.08490
H768        H  0.74161183  0.53313909  0.46408156     0.07330
C769        C  0.90223438  0.48991594  0.46551112    -0.05240
C770        C  0.89300220  0.49771195  0.44242461    -0.32670
C771        C  0.87722218  0.50403204  0.44819223     0.36580
C772        C  0.87036857  0.50298163  0.47777148    -0.05590
C773        C  0.88005502  0.49623068  0.50128269    -0.32560
C774        C  0.89577058  0.48975790  0.49546612     0.36490
H775        H  0.89773798  0.49847409  0.41934465     0.16860
O776        O  0.86839650  0.51043191  0.42427695    -0.60060
H777        H  0.87525371  0.49549779  0.02433717     0.16870
O778        O  0.90408733  0.48235894  0.01899332    -0.60160
H779        H  0.90948978  0.49160895  0.03029780     0.43870
H780        H  0.86236584  0.50082219  0.41526307     0.43830
C781        C  0.76451824  0.44225467  0.03380205    -0.05240
C782        C  0.75118961  0.43513001  0.04979243    -0.32670
C783        C  0.74816057  0.41793731  0.04864530     0.36580
C784        C  0.75866510  0.40758095  0.03132256    -0.05590
C785        C  0.77107562  0.41523155  0.01332791    -0.32560
C786        C  0.77415872  0.43225833  0.01478639     0.36490
H787        H  0.74339199  0.44284380  0.06386015     0.16860
O788        O  0.73510274  0.41154335  0.06501387    -0.60060
H789        H  0.77892571  0.40812698  0.99846774     0.16870
O790        O  0.78653019  0.43909543  0.99709365    -0.60160
H791        H  0.79701835  0.43634376  0.00765590     0.43870
H792        H  0.72566506  0.41124502  0.05050807     0.43830
C793        C  0.96536788  0.41827450  0.29082273    -0.05240
C794        C  0.95015675  0.41527733  0.27634137    -0.32670
C795        C  0.94956282  0.40878734  0.24685933     0.36580
C796        C  0.96436378  0.40568837  0.23099270    -0.05590
C797        C  0.97965128  0.40908491  0.24513690    -0.32560
C798        C  0.98022357  0.41515548  0.27510348     0.36490
H799        H  0.93864167  0.41768568  0.28816757     0.16860
O800        O  0.93444229  0.40618558  0.23323580    -0.60060
H801        H  0.99112492  0.40678848  0.23310404     0.16870
O802        O  0.99528894  0.41816702  0.28865515    -0.60160
H803        H  0.99799589  0.42992338  0.28387922     0.43870
H804        H  0.92992037  0.39588233  0.24264891     0.43830
C805        C  0.88704380  0.34693289  0.06656514    -0.05240
C806        C  0.87691843  0.35683669  0.04833011    -0.32670
C807        C  0.85988671  0.35346734  0.04572642     0.36580
C808        C  0.85266370  0.33966942  0.06107727    -0.05590
C809        C  0.86302659  0.32954741  0.07877238    -0.32560
C810        C  0.88000231  0.33313379  0.08170037     0.36490
H811        H  0.88208790  0.36771887  0.03709908     0.16860
O812        O  0.85035959  0.36448049  0.02986507    -0.60060
H813        H  0.85798767  0.31881153  0.09059110     0.16870
O814        O  0.88959510  0.32310431  0.09958874    -0.60160
H815        H  0.89424837  0.31480047  0.08540121     0.43870
H816        H  0.85272736  0.36234221  0.00801158     0.43830
C817        C  0.05031916  0.36231988  0.03855390    -0.05240
C818        C  0.03686728  0.35292192  0.02717377    -0.32670
C819        C  0.02136057  0.36005387  0.02225899     0.36580
C820        C  0.01909487  0.37709455  0.02794274    -0.05590
C821        C  0.03305767  0.38687531  0.03537859    -0.32560
C822        C  0.04845454  0.37968481  0.04112955     0.36490
H823        H  0.03799781  0.33971398  0.02357422     0.16860
O824        O  0.00836766  0.34992269  0.01392446    -0.60060
H825        H  0.03177283  0.40008742  0.03902962     0.16870
O826        O  0.06118388  0.38976306  0.05087910    -0.60160
H827        H  0.05945387  0.39103548  0.07317149     0.43870
H828        H  0.00421662  0.34495953  0.03324995     0.43830
C829        C  0.12551195  0.21552728  0.09576584    -0.05240
C830        C  0.12930911  0.22271561  0.12413816    -0.32670
C831        C  0.12421041  0.23883583  0.13124120     0.36580
C832        C  0.11497547  0.24806382  0.10989958    -0.05590
C833        C  0.11031870  0.24043737  0.08231747    -0.32560
C834        C  0.11541835  0.22436387  0.07524506     0.36490
H835        H  0.13679447  0.21610184  0.14054281     0.16860
O836        O  0.12806703  0.24531062  0.15934285    -0.60060
H837        H  0.10312135  0.24710609  0.06556627     0.16870
O838        O  0.11056050  0.21752505  0.04798216    -0.60160
H839        H  0.10038338  0.21098921  0.05273536     0.43870
H840        H  0.14022149  0.24733058  0.15899610     0.43830
C841        C  0.20159956  0.14748381  0.35929923    -0.05240
C842        C  0.21372096  0.14702655  0.38229707    -0.32670
C843        C  0.20925327  0.14657130  0.41315838     0.36580
C844        C  0.19240786  0.14702587  0.42147632    -0.05590
C845        C  0.18027620  0.14684003  0.39849141    -0.32560
C846        C  0.18474129  0.14681324  0.36760665     0.36490
H847        H  0.22675622  0.14733798  0.37636379     0.16860
O848        O  0.22147217  0.14697176  0.43492380    -0.60060
H849        H  0.16725130  0.14699836  0.40448099     0.16870
O850        O  0.17253244  0.14738701  0.34586818    -0.60160
H851        H  0.16835150  0.13580785  0.34400281     0.43870
H852        H  0.22553975  0.13543524  0.43619822     0.43830
C853        C  0.21367672  0.35212638  0.10723195    -0.05240
C854        C  0.20244105  0.35047121  0.08303434    -0.32670
C855        C  0.18541150  0.35193545  0.08811173     0.36580
C856        C  0.17945312  0.35455636  0.11792234    -0.05590
C857        C  0.19071956  0.35682833  0.14192161    -0.32560
C858        C  0.20778284  0.35591159  0.13666315     0.36490
H859        H  0.20684804  0.34739446  0.06039679     0.16860
O860        O  0.17463958  0.34918373  0.06438086    -0.60060
H861        H  0.18624216  0.35860204  0.16499704     0.16870
O862        O  0.21847242  0.35713102  0.16092960    -0.60160
H863        H  0.22049560  0.36919493  0.16368496     0.43870
H864        H  0.17347530  0.36012290  0.05427731     0.43830
C865        C  0.27027008  0.21584064  0.18425036    -0.05240
C866        C  0.25985476  0.22929252  0.18974157    -0.32670
C867        C  0.26362314  0.24496753  0.17783126     0.36580
C868        C  0.27826013  0.24750423  0.16093362    -0.05590
C869        C  0.28896654  0.23419116  0.15609595    -0.32560
C870        C  0.28488336  0.21830712  0.16719553     0.36490
H871        H  0.24854305  0.22756195  0.20276715     0.16860
O872        O  0.25316510  0.25787512  0.18355479    -0.60060
H873        H  0.30032254  0.23606337  0.14327474     0.16870
O874        O  0.29546717  0.20542527  0.16217313    -0.60160
H875        H  0.29248166  0.20110003  0.14169145     0.43870
H876        H  0.24419880  0.25678201  0.16816996     0.43830
C877        C  0.98551322  0.84748619  0.46805572    -0.05240
C878        C  0.99791750  0.84509017  0.44589050    -0.32670
C879        C  0.01363022  0.83944243  0.45389292     0.36580
C880        C  0.01738285  0.83605246  0.48458763    -0.05590
C881        C  0.00502976  0.83786950  0.00674299    -0.32560
C882        C  0.98912599  0.84316729  0.49869490     0.36490
H883        H  0.99580010  0.84802838  0.42215983     0.16860
O884        O  0.02545789  0.83800415  0.43158927    -0.60060
H885        H  0.00771671  0.83510759  0.03044063     0.16870
O886        O  0.97738637  0.84411626  0.02117219    -0.60160
H887        H  0.97143257  0.83327722  0.02067084     0.43870
H888        H  0.03128596  0.84891090  0.43105697     0.43830
C889        C  0.92148644  0.92711025  0.23013392    -0.05240
C890        C  0.93620796  0.92715960  0.24720998    -0.32670
C891        C  0.93627954  0.92176646  0.27748421     0.36580
C892        C  0.92146247  0.91642463  0.29136958    -0.05590
C893        C  0.90662874  0.91660735  0.27470907    -0.32560
C894        C  0.90659597  0.92167596  0.24402984     0.36490
H895        H  0.94779536  0.93117747  0.23692711     0.16860
O896        O  0.95091400  0.92182417  0.29342415    -0.60060
H897        H  0.89513516  0.91258505  0.28535453     0.16870
O898        O  0.89190413  0.92192341  0.22828591    -0.60160
H899        H  0.88952092  0.91019010  0.22287872     0.43870
H900        H  0.95131367  0.93265755  0.30411174     0.43830
C901        C  0.14841808  0.05577585  0.10463251    -0.05240
C902        C  0.16451574  0.05808784  0.09306161    -0.32670
C903        C  0.17331591  0.07292117  0.09806152     0.36580
C904        C  0.16576214  0.08615389  0.11383333    -0.05590
C905        C  0.15061062  0.08288672  0.12873943    -0.32560
C906        C  0.14206864  0.06785530  0.12451187     0.36490
H907        H  0.17010178  0.04872893  0.07884176     0.16860
O908        O  0.18901443  0.07440073  0.08635865    -0.60060
H909        H  0.14481089  0.09220659  0.14267255     0.16870
O910        O  0.12724771  0.06539850  0.13923658    -0.60160
H911        H  0.12997898  0.05887358  0.15773922     0.43870
H912        H  0.19650978  0.07214904  0.10378123     0.43830
C913        C  0.12747805  0.93011058  0.01278739    -0.05240
C914        C  0.13346167  0.92380183  0.04061296    -0.32670
C915        C  0.13214163  0.90684351  0.04728082     0.36580
C916        C  0.12492381  0.89600084  0.02593419    -0.05590
C917        C  0.12012625  0.90202444  0.99729838    -0.32560
C918        C  0.12129171  0.91897819  0.99064305     0.36490
H919        H  0.13819077  0.93210900  0.05804832     0.16860
O920        O  0.13696289  0.90115587  0.07538770    -0.60060
H921        H  0.11472149  0.89365564  0.98058831     0.16870
O922        O  0.11622419  0.92459614  0.46259237    -0.60160
H923        H  0.10400812  0.92303397  0.46230147     0.43870
H924        H  0.14859814  0.89763666  0.07264921     0.43830
C925        C  0.99315228  0.98886009  0.05604694    -0.05240
C926        C  0.99923792  0.00470452  0.06358682    -0.32670
C927        C  0.01577721  0.00921751  0.05741201     0.36580
C928        C  0.02664323  0.99759938  0.04432946    -0.05590
C929        C  0.02035775  0.98174708  0.03684055    -0.32560
C930        C  0.00379752  0.97741039  0.04240526     0.36490
H931        H  0.99111208  0.01362106  0.07414141     0.16860
O932        O  0.02108947  0.02501205  0.06414169    -0.60060
H933        H  0.02835874  0.97241436  0.02733215     0.16870
O934        O  0.99837523  0.96158469  0.03610747    -0.60160
H935        H  0.99511452  0.96178097  0.01428533     0.43870
H936        H  0.01964971  0.03139642  0.04496911     0.43830
C937        C  0.02759176  0.44568726  0.47355007    -0.05240
C938        C  0.03013789  0.46218275  0.48303732    -0.32670
C939        C  0.04257428  0.47213825  0.46993211     0.36580
C940        C  0.05288413  0.46561541  0.44704156    -0.05590
C941        C  0.05219192  0.44843204  0.44164173    -0.32560
C942        C  0.03985030  0.43841964  0.45503216     0.36490
H943        H  0.02187121  0.46792295  0.49915183     0.16860
O944        O  0.04445092  0.48820376  0.47971333    -0.60060
H945        H  0.06065749  0.44270448  0.42583250     0.16870
O946        O  0.03984376  0.42162263  0.44977098    -0.60160
H947        H  0.03912128  0.42023036  0.42729439     0.43870
H948        H  0.03439361  0.49403688  0.47266474     0.43830
C949        C  0.11702380  0.61710105  0.42410509    -0.05240
C950        C  0.10074634  0.61428676  0.41392483    -0.32670
C951        C  0.09604249  0.59880741  0.40180941     0.36580
C952        C  0.10781473  0.58611845  0.39928269    -0.05590
C953        C  0.12404517  0.58903260  0.40970964    -0.32560
C954        C  0.12861113  0.60429734  0.42237666     0.36490
H955        H  0.09174448  0.62411461  0.41520002     0.16860
O956        O  0.08008062  0.59634107  0.39188451    -0.60060
H957        H  0.13322181  0.57937586  0.40827426     0.16870
O958        O  0.14460431  0.60679348  0.43213601    -0.60160
H959        H  0.14461514  0.60329038  0.45385298     0.43870
H960        H  0.08022041  0.59948385  0.36998485     0.43830
C961        C  0.20107979  0.47684145  0.38070277    -0.05240
C962        C  0.18808585  0.48137860  0.40014437    -0.32670
C963        C  0.17200574  0.48306928  0.38891542     0.36580
C964        C  0.16877008  0.48038918  0.35776380    -0.05590
C965        C  0.18138866  0.47476185  0.33867937    -0.32560
C966        C  0.19748709  0.47278733  0.35000810     0.36490
H967        H  0.19060128  0.48452711  0.42375486     0.16860
O968        O  0.15980558  0.48864500  0.40798650    -0.60060
H969        H  0.17894862  0.47269053  0.31464916     0.16870
O970        O  0.20984201  0.46856580  0.33012568    -0.60160
H971        H  0.20925416  0.45629281  0.32880887     0.43870
H972        H  0.15425937  0.47847949  0.41596248     0.43830
C973        C  0.15250653  0.74398476  0.41867147    -0.05240
C974        C  0.13517041  0.74307535  0.42090752    -0.32670
C975        C  0.12604196  0.75670442  0.43037663     0.36580
C976        C  0.13414410  0.77191660  0.43698191    -0.05590
C977        C  0.15142745  0.77311650  0.43272588    -0.32560
C978        C  0.16059140  0.75929290  0.42378283     0.36490
H979        H  0.12865853  0.73137362  0.41775529     0.16860
O980        O  0.10936426  0.75451104  0.43506958    -0.60060
H981        H  0.15797291  0.78466990  0.43716349     0.16870
O982        O  0.17751165  0.76066547  0.42154876    -0.60160
H983        H  0.17975556  0.76270351  0.39959021     0.43870
H984        H  0.10829177  0.75073388  0.45655555     0.43830
C985        C  0.18794225  0.68246768  0.17105976    -0.05240
C986        C  0.20046273  0.68233626  0.14881725    -0.32670
C987        C  0.19653730  0.68294330  0.11769283     0.36580
C988        C  0.17983297  0.68307244  0.10839155    -0.05590
C989        C  0.16732118  0.68343619  0.13064167    -0.32560
C990        C  0.17127531  0.68344898  0.16177911     0.36490
H991        H  0.21335397  0.68168301  0.15559281     0.16860
O992        O  0.20906449  0.68230126  0.09658552    -0.60060
H993        H  0.15440986  0.68361841  0.12385811     0.16870
O994        O  0.15872125  0.68332890  0.18288844    -0.60160
H995        H  0.15514411  0.69502270  0.18435999     0.43870
H996        H  0.21365429  0.69376073  0.09549737     0.43830
C997        C  0.25106543  0.61492035  0.35327395    -0.05240
C998        C  0.24738592  0.60860923  0.38244512    -0.32670
C999        C  0.25294350  0.59296198  0.39156413     0.36580
C1000       C  0.26233223  0.58320895  0.37135811    -0.05590
C1001       C  0.26681682  0.58996182  0.34289767    -0.32560
C1002       C  0.26124647  0.60559211  0.33375376     0.36490
H1003       H  0.23973543  0.61558822  0.39800291     0.16860
O1004       O  0.24895433  0.58731832  0.42021211    -0.60060
H1005       H  0.27421474  0.58291877  0.32704541     0.16870
O1006       O  0.26617537  0.61179036  0.30595732    -0.60160
H1007       H  0.26025445  0.60494764  0.29051597     0.43870
H1008       H  0.25858255  0.59040060  0.43318554     0.43830
C1009       C  0.23362733  0.77665879  0.34431502    -0.05240
C1010       C  0.24230704  0.76429753  0.36003930    -0.32670
C1011       C  0.23477957  0.74908021  0.36746125     0.36580
C1012       C  0.21802552  0.74599501  0.35967728    -0.05590
C1013       C  0.20884808  0.75912404  0.34733698    -0.32560
C1014       C  0.21646029  0.77424977  0.33944300     0.36490
H1015       H  0.25530828  0.76603316  0.36540836     0.16860
O1016       O  0.24431629  0.73712748  0.38073238    -0.60060
H1017       H  0.19583872  0.75736432  0.34198630     0.16870
O1018       O  0.20719438  0.78590565  0.32467550    -0.60160
H1019       H  0.20114538  0.79175915  0.34106743     0.43870
H1020       H  0.25040578  0.73192209  0.36364731     0.43830
C1021       C  0.38484123  0.84882332  0.29667626    -0.05240
C1022       C  0.37526833  0.83972634  0.31779885    -0.32670
C1023       C  0.35922258  0.83415901  0.31064228     0.36580
C1024       C  0.35227003  0.83780613  0.28188166    -0.05590
C1025       C  0.36206749  0.84640795  0.26033569    -0.32560
C1026       C  0.37823965  0.85178213  0.26740128     0.36490
H1027       H  0.38009745  0.83720108  0.34038747     0.16860
O1028       O  0.35006570  0.82632410  0.33287794    -0.60060
H1029       H  0.35703970  0.84933036  0.23806323     0.16870
O1030       O  0.38693633  0.86097245  0.24630074    -0.60160
H1031       H  0.39142367  0.85276704  0.23173624     0.43870
H1032       H  0.35419433  0.81479400  0.33344644     0.43830
C1033       C  0.45541657  0.91963617  0.04070703    -0.05240
C1034       C  0.45698799  0.93234556  0.01889889    -0.32670
C1035       C  0.45678157  0.92876261  0.48762467     0.36580
C1036       C  0.45440900  0.91228665  0.47773018    -0.05590
C1037       C  0.45333171  0.89953568  0.99957572    -0.32560
C1038       C  0.45408270  0.90307188  0.03083160     0.36490
H1039       H  0.45816764  0.94515295  0.02612980     0.16860
O1040       O  0.45772802  0.94157122  0.46703109    -0.60060
H1041       H  0.45168580  0.88676419  0.99241575     0.16870
O1042       O  0.45228949  0.89036630  0.05147648    -0.60160
H1043       H  0.46336905  0.88522909  0.05277039     0.43870
H1044       H  0.46967176  0.94457649  0.46584569     0.43830
C1045       C  0.24637412  0.05886679  0.21641174    -0.05240
C1046       C  0.25108815  0.06506180  0.18768974    -0.32670
C1047       C  0.24290119  0.07858600  0.17464601     0.36580
C1048       C  0.22992446  0.08626168  0.19064931    -0.05590
C1049       C  0.22436718  0.07903845  0.21815631    -0.32560
C1050       C  0.23241547  0.06549765  0.23098506     0.36490
H1051       H  0.26143799  0.05968668  0.17564894     0.16860
O1052       O  0.24771193  0.08428351  0.14640770    -0.60060
H1053       H  0.21450656  0.08449960  0.23127134     0.16870
O1054       O  0.22752720  0.05999810  0.25928064    -0.60160
H1055       H  0.21733952  0.05327007  0.25563405     0.43870
H1056       H  0.25925981  0.08843676  0.14892875     0.43830
C1057       C  0.25752809  0.93837334  0.29337071    -0.05240
C1058       C  0.24954681  0.92677350  0.31223874    -0.32670
C1059       C  0.24641132  0.91060744  0.30183682     0.36580
C1060       C  0.25152958  0.90592250  0.27222686    -0.05590
C1061       C  0.25827312  0.91807025  0.25266926    -0.32560
C1062       C  0.26136921  0.93416216  0.26310367     0.36490
H1063       H  0.24651773  0.92999712  0.33556966     0.16860
O1064       O  0.23984075  0.89920547  0.32182948    -0.60060
H1065       H  0.26205785  0.91482494  0.22973071     0.16870
O1066       O  0.26879089  0.94553242  0.24398187    -0.60160
H1067       H  0.28085980  0.94359328  0.24591046     0.43870
H1068       H  0.22768643  0.90082218  0.32090728     0.43830
C1069       C  0.36539340  0.99817142  0.25152612    -0.05240
C1070       C  0.38056469  0.00320036  0.26427345    -0.32670
C1071       C  0.39554478  0.99770527  0.25184669     0.36580
C1072       C  0.39540456  0.98691609  0.22648017    -0.05590
C1073       C  0.38012400  0.98232336  0.21337116    -0.32560
C1074       C  0.36522427  0.98777353  0.22583730     0.36490
H1075       H  0.38077885  0.01125132  0.28405467     0.16860
O1076       O  0.41019667  0.00296512  0.26466122    -0.60060
H1077       H  0.37963656  0.97400030  0.19400866     0.16870
O1078       O  0.35050351  0.98270655  0.21298877    -0.60160
H1079       H  0.34752741  0.97219170  0.22355558     0.43870
H1080       H  0.41363788  0.01284488  0.25259302     0.43830
C1081       C  0.83357104  0.97322820  0.05611349    -0.05240
C1082       C  0.83317987  0.95648412  0.04683009    -0.32670
C1083       C  0.84775121  0.94835071  0.03835703     0.36580
C1084       C  0.86301391  0.95697838  0.03862364    -0.05590
C1085       C  0.86330873  0.97383929  0.04624127    -0.32560
C1086       C  0.84891267  0.98192509  0.05517272     0.36490
H1087       H  0.82163881  0.94948968  0.04688420     0.16860
O1088       O  0.84706013  0.93179424  0.03122279    -0.60060
H1089       H  0.87499154  0.98058618  0.04751244     0.16870
O1090       O  0.85043918  0.99788696  0.06557468    -0.60160
H1091       H  0.85179284  0.00482793  0.04699746     0.43870
H1092       H  0.84664758  0.93138740  0.00860501     0.43830
C1093       C  0.76426630  0.08459642  0.12030740    -0.05240
C1094       C  0.76810122  0.09150082  0.09165595    -0.32670
C1095       C  0.76242951  0.10720565  0.08330521     0.36580
C1096       C  0.75281329  0.11649249  0.10383427    -0.05590
C1097       C  0.74970391  0.10999801  0.13309549    -0.32560
C1098       C  0.75533691  0.09423104  0.14140384     0.36490
H1099       H  0.77508177  0.08453819  0.07505424     0.16860
O1100       O  0.76674501  0.11353202  0.05526409    -0.60060
H1101       H  0.74246032  0.11694510  0.14935881     0.16870
O1102       O  0.75189679  0.08836520  0.17013939    -0.60160
H1103       H  0.76179308  0.09129586  0.18253256     0.43870
H1104       H  0.76040479  0.10682930  0.04017545     0.43830
C1105       C  0.52249437  0.94552518  0.20816872    -0.05240
C1106       C  0.52958892  0.94160885  0.17976424    -0.32670
C1107       C  0.54280005  0.95093218  0.16793785     0.36580
C1108       C  0.54939044  0.96438918  0.18464711    -0.05590
C1109       C  0.54328776  0.96747023  0.21408063    -0.32560
C1110       C  0.53013267  0.95799930  0.22606634     0.36490
H1111       H  0.52423422  0.93210510  0.16531262     0.16860
O1112       O  0.54830887  0.94746500  0.13904927    -0.60060
H1113       H  0.54850996  0.97748768  0.22761291     0.16870
O1114       O  0.52444945  0.96151233  0.25480279    -0.60160
H1115       H  0.52985563  0.95334569  0.26837673     0.43870
H1116       H  0.54137296  0.95422905  0.12522701     0.43830
C1117       C  0.66967441  0.98750367  0.09815949    -0.05240
C1118       C  0.68259855  0.99657691  0.08426228    -0.32670
C1119       C  0.69900662  0.99459347  0.09359074     0.36580
C1120       C  0.70278617  0.98324025  0.11688201    -0.05590
C1121       C  0.69015093  0.97343214  0.12963460    -0.32560
C1122       C  0.67365479  0.97539996  0.12036310     0.36490
H1123       H  0.67991414  0.00576572  0.06693875     0.16860
O1124       O  0.71124810  0.00424908  0.08060865    -0.60060
H1125       H  0.69296262  0.96481018  0.14786299     0.16870
O1126       O  0.66150829  0.96647083  0.13514359    -0.60160
H1127       H  0.66151828  0.95536977  0.12541768     0.43870
H1128       H  0.71112811  0.01484963  0.09206436     0.43830
C1129       C  0.71682314  0.24844676  0.12475450    -0.05240
C1130       C  0.71053698  0.26122014  0.10623432    -0.32670
C1131       C  0.71796820  0.27699602  0.10558317     0.36580
C1132       C  0.73189354  0.28048608  0.12402036    -0.05590
C1133       C  0.73714384  0.26835895  0.14477051    -0.32560
C1134       C  0.72955399  0.25261587  0.14572485     0.36490
H1135       H  0.70038118  0.25893019  0.09068581     0.16860
O1136       O  0.71213519  0.28846706  0.08522797    -0.60060
H1137       H  0.74748239  0.27096704  0.15988483     0.16870
O1138       O  0.73509457  0.24138832  0.16675700    -0.60160
H1139       H  0.72716320  0.24201916  0.18399920     0.43870
H1140       H  0.71825310  0.28642273  0.06598714     0.43830
C1141       C  0.68086211  0.18637957  0.36353477    -0.05240
C1142       C  0.66829650  0.18688074  0.38569480    -0.32670
C1143       C  0.67218385  0.18694456  0.41689129     0.36580
C1144       C  0.68881875  0.18587909  0.42630241    -0.05590
C1145       C  0.70137873  0.18559551  0.40414841    -0.32560
C1146       C  0.69753802  0.18613674  0.37299763     0.36490
H1147       H  0.65540601  0.18713506  0.37879551     0.16860
O1148       O  0.65959870  0.18695070  0.43793033    -0.60060
H1149       H  0.71424869  0.18483803  0.41101911     0.16870
O1150       O  0.71011960  0.18529362  0.35202791    -0.60160
H1151       H  0.71491767  0.19667207  0.35102999     0.43870
H1152       H  0.65630000  0.19871651  0.43969518     0.43830
C1153       C  0.60420254  0.08960323  0.15395897    -0.05240
C1154       C  0.60712763  0.09120560  0.18532485    -0.32670
C1155       C  0.61372834  0.10593393  0.19747269     0.36580
C1156       C  0.61737792  0.11960388  0.17811398    -0.05590
C1157       C  0.61340894  0.11816703  0.14686631    -0.32560
C1158       C  0.60702073  0.10333702  0.13479611     0.36490
H1159       H  0.60514177  0.08067467  0.20035483     0.16860
O1160       O  0.61750765  0.10625982  0.22794211    -0.60060
H1161       H  0.61554185  0.12842411  0.13135998     0.16870
O1162       O  0.60391048  0.10228303  0.10407002    -0.60160
H1163       H  0.59206427  0.10516481  0.10175666     0.43870
H1164       H  0.60685967  0.10841341  0.23843475     0.43830
C1165       C  0.33252393  0.46960976  0.31981194    -0.05240
C1166       C  0.33178302  0.45273642  0.31147528    -0.32670
C1167       C  0.34625361  0.44399480  0.30470055     0.36580
C1168       C  0.36173392  0.45219543  0.30529064    -0.05590
C1169       C  0.36240628  0.46920440  0.31176662    -0.32560
C1170       C  0.34811503  0.47783077  0.31949460     0.36490
H1171       H  0.32002618  0.44611792  0.31101568     0.16860
O1172       O  0.34519757  0.42740791  0.29788349    -0.60060
H1173       H  0.37425923  0.47563401  0.31318525     0.16870
O1174       O  0.34985638  0.49401405  0.32856736    -0.60160
H1175       H  0.35170218  0.49351169  0.35094148     0.43870
H1176       H  0.34408419  0.42167740  0.31784509     0.43830
C1177       C  0.65237897  0.24557015  0.17631688    -0.05240
C1178       C  0.63530708  0.24358304  0.18143659    -0.32670
C1179       C  0.62582732  0.25665550  0.19242929     0.36580
C1180       C  0.63326109  0.27237287  0.19768680    -0.05590
C1181       C  0.65016733  0.27460233  0.19032023    -0.32560
C1182       C  0.65971043  0.26134156  0.17999913     0.36490
H1183       H  0.62945163  0.23147145  0.17931345     0.16860
O1184       O  0.60957739  0.25346129  0.19965449    -0.60060
H1185       H  0.65623796  0.28652350  0.19342807     0.16870
O1186       O  0.67636843  0.26371837  0.17510199    -0.60160
H1187       H  0.67749648  0.26555631  0.15280005     0.43870
H1188       H  0.60973917  0.24941209  0.22105247     0.43830
C1189       C  0.51837709  0.33770255  0.25569022    -0.05240
C1190       C  0.51530725  0.35390144  0.24562076    -0.32670
C1191       C  0.49952601  0.35840683  0.23578619     0.36580
C1192       C  0.48636842  0.34681392  0.23682681    -0.05590
C1193       C  0.48926886  0.33067077  0.24735662    -0.32560
C1194       C  0.50523959  0.32601093  0.25645285     0.36490
H1195       H  0.52527968  0.36302272  0.24469880     0.16860
O1196       O  0.49696804  0.37430302  0.22577460    -0.60060
H1197       H  0.47921050  0.32164121  0.24810093     0.16870
O1198       O  0.50785373  0.31009356  0.26623923    -0.60160
H1199       H  0.50625325  0.31041913  0.28867723     0.43870
H1200       H  0.50033927  0.37432124  0.20399875     0.43830
C1201       C  0.63239568  0.43255689  0.27978211    -0.05240
C1202       C  0.63222844  0.42182185  0.25463994    -0.32670
C1203       C  0.63120023  0.40462772  0.25887485     0.36580
C1204       C  0.62976006  0.39804999  0.28857083    -0.05590
C1205       C  0.63075775  0.40871455  0.31373726    -0.32240
C1206       C  0.63236009  0.42587511  0.30953124     0.36490
H1207       H  0.63204602  0.42682990  0.23166753     0.16860
O1208       O  0.62986807  0.39450555  0.23384053    -0.60060
H1209       H  0.62948101  0.40378124  0.33666008     0.16870
O1210       O  0.63209282  0.43606586  0.33455321    -0.60160
H1211       H  0.64380447  0.43699965  0.34127036     0.43870
H1212       H  0.64144062  0.39188347  0.22819258     0.43830
C1213       C  0.35781072  0.38772376  0.23834319    -0.05240
C1214       C  0.35267677  0.37278301  0.25238244    -0.32670
C1215       C  0.33926091  0.36354298  0.24098326     0.36580
C1216       C  0.33052185  0.36924501  0.21531609    -0.05590
C1217       C  0.33394063  0.38526368  0.20436131    -0.32560
C1218       C  0.34734654  0.39455764  0.21568229     0.36490
H1219       H  0.35959468  0.36765404  0.27123944     0.16860
O1220       O  0.33522626  0.34868193  0.25450011    -0.60060
H1221       H  0.32688982  0.39031239  0.18556403     0.16870
O1222       O  0.35014124  0.41006992  0.20376138    -0.60160
H1223       H  0.35386658  0.40825969  0.18243982     0.43870
H1224       H  0.32603442  0.35119891  0.26871545     0.43830
C1225       C  0.42102364  0.41496207  0.06217415    -0.05240
C1226       C  0.40576381  0.41610651  0.04701856    -0.32670
C1227       C  0.40516362  0.42101010  0.01626695     0.36580
C1228       C  0.41993630  0.42535030  0.50081683    -0.05590
C1229       C  0.43508757  0.42457823  0.01644153    -0.32560
C1230       C  0.43570693  0.41932371  0.04675088     0.36490
H1231       H  0.39437352  0.41284721  0.05882118     0.16860
O1232       O  0.39010736  0.42208902  0.50190216    -0.60060
H1233       H  0.44658396  0.42776935  0.00494513     0.16870
O1234       O  0.45076232  0.41854173  0.06119385    -0.60160
H1235       H  0.45209678  0.42933961  0.07178793     0.43870
H1236       H  0.38688191  0.41049331  0.99690765     0.43830
C1237       C  0.49280703  0.48086450  0.32119078    -0.05240
C1238       C  0.49874697  0.49595987  0.33300168    -0.32670
C1239       C  0.51500400  0.50146539  0.32711999     0.36580
C1240       C  0.52594840  0.49146846  0.31015047    -0.05590
C1241       C  0.51974964  0.47642693  0.29802764    -0.32560
C1242       C  0.50334756  0.47122314  0.30314295     0.36490
H1243       H  0.49068971  0.50357575  0.34675307     0.16860
O1244       O  0.51993138  0.51663989  0.33814094    -0.60060
H1245       H  0.52767919  0.46831183  0.28514004     0.16870
O1246       O  0.49810073  0.45611816  0.29217216    -0.60160
H1247       H  0.49490726  0.45819753  0.27065550     0.43870
H1248       H  0.51791342  0.52454497  0.32121049     0.43830
C1249       C  0.73132949  0.59120416  0.41298403    -0.05240
C1250       C  0.72312000  0.57591560  0.41689942    -0.32670
C1251       C  0.73204735  0.56140162  0.42250031     0.36580
C1252       C  0.74953662  0.56209584  0.42451863    -0.05590
C1253       C  0.75769921  0.57717245  0.41790880    -0.32560
C1254       C  0.74881554  0.59161816  0.41240908     0.36490
H1255       H  0.70968955  0.57535439  0.41701955     0.16860
O1256       O  0.72354647  0.54666433  0.42591614    -0.60060
H1257       H  0.77106494  0.57818238  0.41903066     0.16870
O1258       O  0.75745789  0.60626443  0.40895429    -0.60160
H1259       H  0.75913895  0.61054431  0.42996321     0.43870
H1260       H  0.71724406  0.54770532  0.44525403     0.43830
C1261       C  0.55035668  0.87080141  0.30432896    -0.05240
C1262       C  0.54521574  0.88283311  0.32512885    -0.32670
C1263       C  0.52948373  0.88976965  0.32303950     0.36580
C1264       C  0.51861510  0.88513431  0.29899140    -0.05590
C1265       C  0.52427328  0.87375673  0.27709783    -0.32560
C1266       C  0.53993385  0.86653717  0.27975711     0.36490
H1267       H  0.55304989  0.88617796  0.34431315     0.16860
O1268       O  0.52470089  0.90029005  0.34582265    -0.60060
H1269       H  0.51637488  0.87009028  0.25822677     0.16870
O1270       O  0.54482199  0.85514055  0.25849190    -0.60160
H1271       H  0.55121582  0.86161296  0.24311657     0.43870
H1272       H  0.51983535  0.89302003  0.36187168     0.43830
C1273       C  0.61921074  0.75668805  0.35796728    -0.05240
C1274       C  0.62476799  0.75353166  0.32836245    -0.32670
C1275       C  0.63169983  0.73827950  0.32074203     0.36580
C1276       C  0.63288689  0.72548703  0.34289243    -0.05590
C1277       C  0.62702010  0.72872535  0.37261264    -0.32560
C1278       C  0.62037856  0.74419472  0.38023189     0.36490
H1279       H  0.62430281  0.76321053  0.31118486     0.16860
O1280       O  0.63809353  0.73655577  0.29198095    -0.60060
H1281       H  0.62760493  0.71931872  0.39020091     0.16870
O1282       O  0.61513013  0.74700152  0.40952628    -0.60160
H1283       H  0.60318633  0.74393287  0.40957107     0.43870
H1284       H  0.62834829  0.73493949  0.27844421     0.43830
C1285       C  0.65847143  0.59338986  0.36868339    -0.05240
C1286       C  0.66777442  0.57883196  0.36713015    -0.32670
C1287       C  0.65999746  0.56325093  0.36423214     0.36580
C1288       C  0.64252271  0.56200012  0.36190781    -0.05590
C1289       C  0.63326874  0.57652927  0.36562260    -0.32560
C1290       C  0.64103275  0.59204568  0.36890021     0.36490
H1291       H  0.68119718  0.57958668  0.36729085     0.16860
O1292       O  0.66972473  0.54946787  0.36301606    -0.60060
H1293       H  0.61989013  0.57616146  0.36436180     0.16870
O1294       O  0.63135078  0.60587621  0.37017611    -0.60160
H1295       H  0.62958697  0.60918088  0.34860711     0.43870
H1296       H  0.67032391  0.54539675  0.38435965     0.43830
C1297       C  0.70530202  0.65155968  0.11074830    -0.05240
C1298       C  0.68841139  0.65196566  0.11815086    -0.32670
C1299       C  0.68326329  0.65233869  0.14862130     0.36580
C1300       C  0.69507184  0.65198927  0.17232930    -0.05590
C1301       C  0.71194313  0.65080643  0.16494317    -0.32560
C1302       C  0.71711739  0.65086326  0.13436467     0.36490
H1303       H  0.67917841  0.65242878  0.10021085     0.16860
O1304       O  0.66664080  0.65304397  0.15495008    -0.60060
H1305       H  0.72116519  0.65037343  0.18289888     0.16870
O1306       O  0.73368154  0.64975850  0.12775544    -0.60160
H1307       H  0.73824643  0.66113136  0.13060234     0.43870
H1308       H  0.66300803  0.64134016  0.15773884     0.43830
C1309       C  0.85906165  0.89165355  0.46418431    -0.05240
C1310       C  0.85138829  0.89689823  0.43701297    -0.32670
C1311       C  0.83852130  0.88770036  0.42382148     0.36580
C1312       C  0.83269471  0.87306837  0.43803583    -0.05590
C1313       C  0.83917649  0.86865094  0.46661662    -0.32560
C1314       C  0.85204742  0.87797124  0.47995631     0.36490
H1315       H  0.85602144  0.90744961  0.42427356     0.16860
O1316       O  0.83263931  0.89256274  0.39586353    -0.60060
H1317       H  0.83447603  0.85773857  0.47839389     0.16870
O1318       O  0.85805208  0.87316973  0.00783479    -0.60160
H1319       H  0.85261016  0.88051556  0.52283205     0.43870
H1320       H  0.83977190  0.88697371  0.38068964     0.43830
C1321       C  0.68160201  0.85981359  0.36409377    -0.05240
C1322       C  0.69409882  0.85715510  0.38573180    -0.32670
C1323       C  0.71060671  0.85569835  0.37665964     0.36580
C1324       C  0.71474124  0.85653892  0.34549215    -0.05590
C1325       C  0.70246847  0.86000107  0.32394110    -0.32560
C1326       C  0.68596403  0.86188165  0.33307890     0.36490
H1327       H  0.69093564  0.85546137  0.40959116     0.16860
O1328       O  0.72241641  0.85208718  0.39811107    -0.60060
H1329       H  0.70556700  0.86053799  0.29988476     0.16870
O1330       O  0.67404632  0.86407568  0.31118259    -0.60160
H1331       H  0.67428873  0.87613087  0.30663069     0.43870
H1332       H  0.72678377  0.86300780  0.40500998     0.43830
C1333       C  0.77472263  0.74997464  0.39491401    -0.05240
C1334       C  0.77928168  0.74496185  0.42447485    -0.32670
C1335       C  0.77409275  0.72958124  0.43629616     0.36580
C1336       C  0.76390295  0.71890029  0.41871861    -0.05590
C1337       C  0.76022562  0.72350110  0.38852897    -0.32560
C1338       C  0.76553845  0.73879270  0.37659519     0.36490
H1339       H  0.78651940  0.75315167  0.43897107     0.16860
O1340       O  0.77902454  0.72525415  0.46514207    -0.60060
H1341       H  0.75275164  0.71548600  0.37412522     0.16870
O1342       O  0.76199283  0.74248083  0.34672317    -0.60160
H1343       H  0.74981738  0.74400276  0.34594561     0.43870
H1344       H  0.78915999  0.71861495  0.46221423     0.43830
N1345       N  0.78836198  0.79309894  0.88334883    -0.27060
N1346       N  0.77567918  0.79220929  0.86429393    -0.34920
C1347       C  0.76952722  0.77665973  0.86431296     0.01280
C1348       C  0.77875373  0.76710417  0.88424783     0.07300
C1349       C  0.79062502  0.77803007  0.89587899    -0.05790
H1350       H  0.75827264  0.77306681  0.85255973     0.07970
H1351       H  0.79971568  0.77547116  0.91335073     0.09170
Cu1352     Cu  0.76479876  0.81240367  0.84339210     0.44170
Cu1353     Cu  0.80027905  0.81527048  0.89501729     0.41990
Cu1354     Cu  0.78109430  0.85187685  0.86235488     0.43880
N1355       N  0.75217262  0.83411752  0.83488223    -0.34450
N1356       N  0.75824666  0.84883230  0.84236141    -0.28700
C1357       C  0.74590185  0.85983618  0.84300346    -0.04800
C1358       C  0.73131816  0.85169180  0.83538067     0.07410
C1359       C  0.73578330  0.83541438  0.83028400     0.01210
H1360       H  0.74701792  0.87212101  0.85276060     0.08860
H1361       H  0.72738639  0.82489211  0.82832267     0.07940
N1362       N  0.80091400  0.85263952  0.89179471    -0.35900
N1363       N  0.80790478  0.83953018  0.90424943    -0.28080
C1364       C  0.82000102  0.84476892  0.92324910    -0.03320
C1365       C  0.82061597  0.86197632  0.92253239     0.05290
C1366       C  0.80825398  0.86647070  0.90244002     0.03390
H1367       H  0.82796351  0.83665105  0.93615400     0.08490
H1368       H  0.80460934  0.87887808  0.89618170     0.07330
N1369       N  0.72031896  0.63392337  0.92172363    -0.27060
N1370       N  0.71184741  0.62690288  0.94418890    -0.34920
C1371       C  0.71222161  0.61036267  0.94079168     0.01280
C1372       C  0.72179030  0.60669240  0.91550702     0.07300
C1373       C  0.72624879  0.62202390  0.90345718    -0.05790
H1374       H  0.70857553  0.60169679  0.95853409     0.07970
H1375       H  0.73536585  0.62433517  0.88580392     0.09170
Cu1376     Cu  0.70706163  0.63867610  0.98513962     0.44170
Cu1377     Cu  0.72985386  0.65781010  0.92408117     0.41990
Cu1378     Cu  0.73494537  0.67316384  0.00131187     0.43880
N1379       N  0.71066329  0.64844434  0.52837303    -0.34450
N1380       N  0.72162458  0.66029710  0.53464839    -0.28700
C1381       C  0.72179710  0.66288474  0.56500223    -0.04800
C1382       C  0.71031280  0.65222592  0.57835627     0.07410
C1383       C  0.70341639  0.64334243  0.55444802     0.01210
H1384       H  0.72929080  0.67223494  0.57635402     0.08860
H1385       H  0.69392528  0.63376768  0.55592155     0.07940
N1386       N  0.74470543  0.68501200  0.96294907    -0.35900
N1387       N  0.74268234  0.67941329  0.93485353    -0.28080
C1388       C  0.74976685  0.69014525  0.91516649    -0.03320
C1389       C  0.75654931  0.70332100  0.93148370     0.05290
C1390       C  0.75302058  0.69958061  0.96181265     0.03390
H1391       H  0.74964436  0.68854763  0.89066334     0.08490
H1392       H  0.75551109  0.70719804  0.98160586     0.07330
N1393       N  0.60404319  0.79883767  0.85708411    -0.27060
N1394       N  0.61565715  0.79996244  0.87831669    -0.34920
C1395       C  0.62155845  0.78474129  0.88409068     0.01280
C1396       C  0.61338852  0.77347463  0.86547218     0.07300
C1397       C  0.60243370  0.78287177  0.84854636    -0.05790
H1398       H  0.63234034  0.78234270  0.89802745     0.07970
H1399       H  0.59482561  0.77860396  0.82971847     0.09170
Cu1400     Cu  0.62672405  0.82222717  0.89105970     0.44170
Cu1401     Cu  0.59272850  0.81934618  0.83736950     0.41990
Cu1402     Cu  0.61340829  0.85865060  0.85086491     0.43880
N1403       N  0.64145634  0.84321547  0.88512726    -0.34450
N1404       N  0.63684921  0.85626781  0.86910825    -0.28700
C1405       C  0.65035017  0.86536389  0.86168926    -0.04800
C1406       C  0.66415024  0.85762150  0.87352764     0.07410
C1407       C  0.65798548  0.84376242  0.88859424     0.01210
H1408       H  0.65024284  0.87584469  0.84624662     0.08860
H1409       H  0.66518355  0.83362689  0.89757388     0.07940
N1410       N  0.59053346  0.85645769  0.82997569    -0.35900
N1411       N  0.58313082  0.84210514  0.82396055    -0.28080
C1412       C  0.56815963  0.84505297  0.81164747    -0.03320
C1413       C  0.56602965  0.86206363  0.81009583     0.05290
C1414       C  0.58045035  0.86886909  0.82204383     0.03390
H1415       H  0.55899429  0.83554848  0.80649784     0.08490
H1416       H  0.58310359  0.88187518  0.82604701     0.07330
N1417       N  0.66909119  0.63699369  0.85816420    -0.27060
N1418       N  0.67914437  0.62983836  0.83842728    -0.34920
C1419       C  0.67837884  0.61332548  0.84248916     0.01280
C1420       C  0.66699909  0.60971549  0.86523824     0.07300
C1421       C  0.66161280  0.62509961  0.87505673    -0.05790
H1422       H  0.68371040  0.60450520  0.82683035     0.07970
H1423       H  0.65160933  0.62743057  0.89083989     0.09170
Cu1424     Cu  0.68821964  0.64087272  0.79889072     0.44170
Cu1425     Cu  0.66162745  0.66166620  0.85546595     0.41990
Cu1426     Cu  0.66205399  0.67384974  0.77686523     0.43880
N1427       N  0.68757808  0.64999939  0.75458521    -0.34450
N1428       N  0.67701442  0.66155508  0.74637292    -0.28700
C1429       C  0.67809025  0.66400536  0.71611962    -0.04800
C1430       C  0.68992495  0.65347192  0.70458532     0.07410
C1431       C  0.69580306  0.64482700  0.72965601     0.01210
H1432       H  0.67091033  0.67296110  0.70353659     0.08860
H1433       H  0.70496622  0.63515132  0.72962118     0.07940
N1434       N  0.65153887  0.68787304  0.81095317    -0.35900
N1435       N  0.65197863  0.68411749  0.84025384    -0.28080
C1436       C  0.64526398  0.69668440  0.85611729    -0.03320
C1437       C  0.64037824  0.70902075  0.83571330     0.05290
C1438       C  0.64449520  0.70269505  0.80725336     0.03390
H1439       H  0.64427115  0.69687617  0.88072654     0.08490
H1440       H  0.64271696  0.70820344  0.78508343     0.07330
N1441       N  0.45122112  0.46265051  0.82812839    -0.27060
N1442       N  0.45502768  0.46527434  0.85708622    -0.34920
C1443       C  0.46996666  0.47279045  0.85877952     0.01280
C1444       C  0.47602990  0.47480870  0.82950152     0.07300
C1445       C  0.46384658  0.46820592  0.81056855    -0.05790
H1446       H  0.47637145  0.47567741  0.87985307     0.07970
H1447       H  0.46424106  0.46728245  0.78594462     0.09170
Cu1448     Cu  0.44105656  0.45611725  0.89306002     0.44170
Cu1449     Cu  0.42893082  0.45137067  0.81498483     0.41990
Cu1450     Cu  0.40857486  0.42684389  0.87423307     0.43880
N1451       N  0.42817929  0.44223412  0.92516925    -0.34450
N1452       N  0.41652490  0.43116943  0.91844190    -0.28700
C1453       C  0.41114980  0.42392319  0.94438916    -0.04800
C1454       C  0.42002918  0.43066253  0.96853661     0.07410
C1455       C  0.43072542  0.44217766  0.95543080     0.01210
H1456       H  0.40194558  0.41406168  0.94538165     0.08860
H1457       H  0.43996406  0.44972893  0.96696647     0.07940
N1458       N  0.39781898  0.43228917  0.83269739    -0.35900
N1459       N  0.40467377  0.44222190  0.81208609    -0.28080
C1460       C  0.39255730  0.44880741  0.79498981    -0.03320
C1461       C  0.37735079  0.44284060  0.80541009     0.05290
C1462       C  0.38131844  0.43207925  0.82880841     0.03390
H1463       H  0.39445322  0.45922393  0.77971706     0.08490
H1464       H  0.37274017  0.42729784  0.84576426     0.07330
N1465       N  0.56946719  0.50591497  0.81293672    -0.27060
N1466       N  0.57012679  0.49492679  0.79067201    -0.34920
C1467       C  0.55483529  0.48876526  0.78549698     0.01280
C1468       C  0.54380170  0.49610079  0.80555914     0.07300
C1469       C  0.55366811  0.50697142  0.82260493    -0.05790
H1470       H  0.55219284  0.47903106  0.76920367     0.07970
H1471       H  0.54997366  0.51442629  0.84183705     0.09170
Cu1472     Cu  0.59204403  0.48600154  0.77286905     0.44170
Cu1473     Cu  0.59052417  0.51779583  0.83053458     0.41990
Cu1474     Cu  0.62976103  0.49938212  0.80939211     0.43880
N1475       N  0.61372272  0.47258141  0.77171361    -0.34450
N1476       N  0.62725121  0.47690076  0.78690499    -0.28700
C1477       C  0.63708819  0.46361358  0.78942775    -0.04800
C1478       C  0.62942690  0.45035189  0.77485128     0.07410
C1479       C  0.61472442  0.45655748  0.76372563     0.01210
H1480       H  0.64810815  0.46319727  0.80346594     0.08860
H1481       H  0.60449403  0.44935398  0.75446619     0.07940
N1482       N  0.62787951  0.52172370  0.83240208    -0.35900
N1483       N  0.61366439  0.52824487  0.84081199    -0.28080
C1484       C  0.61675415  0.54303373  0.85394261    -0.03320
C1485       C  0.63377455  0.54614625  0.85369531     0.05290
C1486       C  0.64033681  0.53223118  0.83968868     0.03390
H1487       H  0.60714645  0.55116462  0.86194586     0.08490
H1488       H  0.65308863  0.53013191  0.83349285     0.07330
N1489       N  0.56065443  0.32292811  0.76217301    -0.27060
N1490       N  0.56160707  0.33661226  0.77869881    -0.34920
C1491       C  0.54649364  0.34332040  0.78054503     0.01280
C1492       C  0.53540198  0.33331122  0.76475611     0.07300
C1493       C  0.54479644  0.32043477  0.75348434    -0.05790
H1494       H  0.54397266  0.35520659  0.79086564     0.07970
H1495       H  0.54070738  0.31084469  0.73785169     0.09170
Cu1496     Cu  0.58366606  0.34749718  0.79301814     0.44170
Cu1497     Cu  0.58149399  0.31041064  0.74725523     0.41990
Cu1498     Cu  0.62122654  0.33109802  0.76232538     0.43880
N1499       N  0.60627440  0.35989962  0.79503637    -0.34450
N1500       N  0.61993938  0.35424873  0.78236687    -0.28700
C1501       C  0.63121724  0.36665931  0.78062695    -0.04800
C1502       C  0.62437105  0.38072243  0.79321716     0.07410
C1503       C  0.60859106  0.37595254  0.80219689     0.01210
H1504       H  0.64289468  0.36590191  0.76860720     0.08860
H1505       H  0.59884944  0.38406877  0.80978712     0.07940
N1506       N  0.61868673  0.30888275  0.73913180    -0.35900
N1507       N  0.60432106  0.30157906  0.73302027    -0.28080
C1508       C  0.60707668  0.28777960  0.71672544    -0.03320
C1509       C  0.62407510  0.28611488  0.71259773     0.05290
C1510       C  0.63094805  0.29984459  0.72718586     0.03390
H1511       H  0.59724185  0.27977409  0.70845214     0.08490
H1512       H  0.64395210  0.30300689  0.72946391     0.07330
N1513       N  0.44543765  0.36395963  0.72678453    -0.27060
N1514       N  0.45120829  0.36473571  0.69857206    -0.34920
C1515       C  0.46603261  0.35740922  0.69745291     0.01280
C1516       C  0.46978633  0.35159399  0.72626583     0.07300
C1517       C  0.45648072  0.35597530  0.74438433    -0.05790
H1518       H  0.47409969  0.35753210  0.67772055     0.07970
H1519       H  0.45558568  0.35476553  0.76893346     0.09170
Cu1520     Cu  0.44050380  0.37843702  0.66413474     0.44170
Cu1521     Cu  0.42415938  0.37632042  0.74012285     0.41990
Cu1522     Cu  0.41340289  0.41029232  0.68918462     0.43880
N1523       N  0.42972946  0.39520729  0.63479742    -0.34450
N1524       N  0.41984091  0.40714866  0.64392537    -0.28700
C1525       C  0.41457387  0.41565973  0.61938118    -0.04800
C1526       C  0.42179946  0.40886290  0.59376414     0.07410
C1527       C  0.43136122  0.39599039  0.60434240     0.01210
H1528       H  0.40641082  0.42618752  0.62020720     0.08860
H1529       H  0.43902232  0.38785503  0.59091107     0.07940
N1530       N  0.39954019  0.40327238  0.72660632    -0.35900
N1531       N  0.40249602  0.38994354  0.74315224    -0.28080
C1532       C  0.38804020  0.38413097  0.75430490    -0.03320
C1533       C  0.37515244  0.39394391  0.74361416     0.05290
C1534       C  0.38329050  0.40641626  0.72730320     0.03390
H1535       H  0.38685784  0.37202322  0.76476013     0.08490
H1536       H  0.37793630  0.41546226  0.71230084     0.07330
N1537       N  0.66438433  0.20318556  0.67582628    -0.27060
N1538       N  0.67435035  0.20943483  0.69692987    -0.34920
C1539       C  0.67390742  0.22605957  0.69546669     0.01280
C1540       C  0.66263883  0.23061683  0.67325921     0.07300
C1541       C  0.65723921  0.21571872  0.66070467    -0.05790
H1542       H  0.67848938  0.23402966  0.71353661     0.07970
H1543       H  0.64659929  0.21406777  0.64592601     0.09170
Cu1544     Cu  0.68032713  0.19697107  0.73667102     0.44170
Cu1545     Cu  0.65466595  0.17928730  0.67756510     0.41990
Cu1546     Cu  0.64908930  0.16615175  0.75556089     0.43880
N1547       N  0.67624153  0.18827720  0.78060571    -0.34450
N1548       N  0.66410353  0.17779600  0.78772767    -0.28700
C1549       C  0.66376857  0.17573893  0.81819384    -0.04800
C1550       C  0.67638371  0.18527896  0.83085214     0.07410
C1551       C  0.68402584  0.19308851  0.80633129     0.01210
H1552       H  0.65519639  0.16761391  0.83019248     0.08860
H1553       H  0.69422142  0.20192376  0.80712177     0.07940
N1554       N  0.63858848  0.15386763  0.71856484    -0.35900
N1555       N  0.64120710  0.15824691  0.68991425    -0.28080
C1556       C  0.63376790  0.14711350  0.67148401    -0.03320
C1557       C  0.62603369  0.13496943  0.68929084     0.05290
C1558       C  0.62936011  0.13987349  0.71916032     0.03390
H1559       H  0.63438761  0.14768474  0.64685487     0.08490
H1560       H  0.62567336  0.13381880  0.74010140     0.07330
N1561       N  0.59238729  0.04662540  0.63962886    -0.27060
N1562       N  0.60403818  0.04896021  0.61876900    -0.34920
C1563       C  0.60882956  0.06498970  0.61894501     0.01280
C1564       C  0.59995310  0.07313992  0.64122777     0.07300
C1565       C  0.58967630  0.06109244  0.65396638    -0.05790
H1566       H  0.61925502  0.06993599  0.60615741     0.07970
H1567       H  0.58164104  0.06249197  0.67354032     0.09170
Cu1568     Cu  0.61629796  0.02979405  0.59730199     0.44170
Cu1569     Cu  0.58238983  0.02344745  0.65046906     0.41990
Cu1570     Cu  0.60168904  0.98856448  0.61280532     0.43880
N1571       N  0.63050455  0.00887801  0.59051393    -0.34450
N1572       N  0.62501443  0.99366755  0.59596688    -0.28700
C1573       C  0.63788665  0.98327288  0.59659664    -0.04800
C1574       C  0.65233154  0.99240418  0.59185599     0.07410
C1575       C  0.64706714  0.00856474  0.58757864     0.01210
H1576       H  0.63679579  0.97033849  0.60286058     0.08860
H1577       H  0.65485156  0.01957363  0.58625317     0.07940
N1578       N  0.58166159  0.98633123  0.64174240    -0.35900
N1579       N  0.57485661  0.99887606  0.65627919    -0.28080
C1580       C  0.56266406  0.99294313  0.67435922    -0.03320
C1581       C  0.56174828  0.97586768  0.67089326     0.05290
C1582       C  0.57403655  0.97214270  0.65009564     0.03390
H1583       H  0.55477894  0.00054500  0.68840141     0.08490
H1584       H  0.57739060  0.96001359  0.64180965     0.07330
N1585       N  0.77905189  0.04193995  0.62035165    -0.27060
N1586       N  0.76661703  0.04057045  0.63978229    -0.34920
C1587       C  0.76012823  0.05564616  0.64437181     0.01280
C1588       C  0.76894824  0.06717066  0.62701031     0.07300
C1589       C  0.78092530  0.05793448  0.61221489    -0.05790
H1590       H  0.74881783  0.05771504  0.65695821     0.07970
H1591       H  0.78967949  0.06229207  0.59521506     0.09170
Cu1592     Cu  0.75650040  0.01782056  0.65209231     0.44170
Cu1593     Cu  0.79063093  0.02152913  0.60171604     0.41990
Cu1594     Cu  0.77067583  0.98127730  0.61086960     0.43880
N1595       N  0.74225904  0.99670909  0.64485943    -0.34450
N1596       N  0.74686564  0.98391902  0.62815274    -0.28700
C1597       C  0.73320431  0.97556454  0.61889019    -0.04800
C1598       C  0.71942019  0.98340082  0.63051695     0.07410
C1599       C  0.72568257  0.99665135  0.64696324     0.01210
H1600       H  0.73320203  0.96597864  0.60163533     0.08860
H1601       H  0.71862898  0.00701139  0.65538322     0.07940
N1602       N  0.79379635  0.98464833  0.59069671    -0.35900
N1603       N  0.80057827  0.99947095  0.58650400    -0.28080
C1604       C  0.81527137  0.99782254  0.57263248    -0.03320
C1605       C  0.81825015  0.98106609  0.56823218     0.05290
C1606       C  0.80418740  0.97311497  0.57985988     0.03390
H1607       H  0.82306800  0.00827794  0.56651079     0.08490
H1608       H  0.80182394  0.95989718  0.58113759     0.07330
N1609       N  0.71360430  0.20365785  0.61086266    -0.27060
N1610       N  0.70219153  0.20925213  0.59198506    -0.34920
C1611       C  0.70027416  0.22555444  0.59674912     0.01280
C1612       C  0.71131495  0.23086390  0.61921688     0.07300
C1613       C  0.71938775  0.21638988  0.62779234    -0.05790
H1614       H  0.69277339  0.23319785  0.58210344     0.07970
H1615       H  0.73001219  0.21530042  0.64258170     0.09170
Cu1616     Cu  0.69422975  0.19702933  0.55288502     0.44170
Cu1617     Cu  0.72388497  0.18010090  0.60799084     0.41990
Cu1618     Cu  0.72070552  0.16374821  0.53200114     0.43880
N1619       N  0.69520470  0.18753238  0.50890864    -0.34450
N1620       N  0.70576337  0.17589796  0.50109585    -0.28700
C1621       C  0.70499842  0.17354550  0.97078560    -0.04800
C1622       C  0.69328301  0.18410994  0.95886253     0.07410
C1623       C  0.68728073  0.19281131  0.98369461     0.01210
H1624       H  0.71242098  0.16475744  0.95833737     0.08860
H1625       H  0.67835545  0.20270287  0.98332162     0.07940
N1626       N  0.73268779  0.15166183  0.56714201    -0.35900
N1627       N  0.73363844  0.15728470  0.59540399    -0.28080
C1628       C  0.74124308  0.14587303  0.61283811    -0.03320
C1629       C  0.74538271  0.13249321  0.59451237     0.05290
C1630       C  0.73964019  0.13665345  0.56574107     0.03390
H1631       H  0.74343274  0.14714704  0.63709171     0.08490
H1632       H  0.73975118  0.12905229  0.54544110     0.07330
N1633       N  0.32411117  0.01243801  0.76837728    -0.27060
N1634       N  0.32480655  0.99911745  0.78597461    -0.34920
C1635       C  0.34020667  0.99299653  0.78483411     0.01280
C1636       C  0.34970154  0.00297689  0.76583696     0.07300
C1637       C  0.33907788  0.01509621  0.75556725    -0.05790
H1638       H  0.34377644  0.98124344  0.79462998     0.07970
H1639       H  0.34162711  0.02424156  0.73802297     0.09170
Cu1640     Cu  0.30414916  0.98734731  0.80456951     0.44170
Cu1641     Cu  0.30218906  0.02444691  0.75800707     0.41990
Cu1642     Cu  0.26485184  0.00532930  0.78923089     0.43880
N1643       N  0.28182782  0.97468526  0.81011990    -0.34450
N1644       N  0.26729938  0.98138386  0.80445588    -0.28700
C1645       C  0.25577811  0.96929281  0.80168510    -0.04800
C1646       C  0.26338885  0.95424141  0.80593346     0.07410
C1647       C  0.27989097  0.95813080  0.81123058     0.01210
H1648       H  0.24342707  0.97116509  0.79280986     0.08860
H1649       H  0.29005610  0.94950913  0.81129955     0.07940
N1650       N  0.26492643  0.02597730  0.76164951    -0.35900
N1651       N  0.27837525  0.03278466  0.74947988    -0.28080
C1652       C  0.27381146  0.04526831  0.73101993    -0.03320
C1653       C  0.25668661  0.04635199  0.73176552     0.05290
C1654       C  0.25150311  0.03388275  0.75138135     0.03390
H1655       H  0.28234501  0.05313149  0.71836541     0.08490
H1656       H  0.23890455  0.03049297  0.75735924     0.07330
N1657       N  0.47852292  0.94132201  0.71987625    -0.27060
N1658       N  0.48127477  0.92832518  0.70235942    -0.34920
C1659       C  0.49766986  0.92598290  0.70045333     0.01280
C1660       C  0.50584925  0.93861058  0.71612798     0.07300
C1661       C  0.49315218  0.94776109  0.72892735    -0.05790
H1662       H  0.50310536  0.91756571  0.68422489     0.07970
H1663       H  0.49435221  0.95990841  0.73917156     0.09170
Cu1664     Cu  0.46551266  0.92079357  0.66768143     0.44170
Cu1665     Cu  0.45632470  0.95398206  0.72090254     0.41990
Cu1666     Cu  0.43760056  0.95338616  0.64710723     0.43880
N1667       N  0.45673090  0.92425040  0.62368886    -0.34450
N1668       N  0.44738196  0.93692467  0.61597839    -0.28700
C1669       C  0.44556564  0.93717630  0.58550672    -0.04800
C1670       C  0.45410626  0.92397165  0.57337704     0.07410
C1671       C  0.46105263  0.91601764  0.59825416     0.01210
H1672       H  0.43847948  0.94628030  0.57310039     0.08860
H1673       H  0.46920737  0.90547980  0.59784809     0.07940
N1674       N  0.42793301  0.96633848  0.68357475    -0.35900
N1675       N  0.43467280  0.96648822  0.71104809    -0.28080
C1676       C  0.42464823  0.97464762  0.73026338    -0.03320
C1677       C  0.41085137  0.97979967  0.71407411     0.05290
C1678       C  0.41342533  0.97428580  0.68453367     0.03390
H1679       H  0.42675642  0.97576208  0.75456259     0.08490
H1680       H  0.40503978  0.97532044  0.66537377     0.07330
N1681       N  0.42628275  0.86732194  0.80823962    -0.27060
N1682       N  0.41981645  0.86856912  0.83583574    -0.34920
C1683       C  0.40450518  0.86187367  0.83581544     0.01280
C1684       C  0.40093186  0.85617075  0.80673424     0.07300
C1685       C  0.41509387  0.85983460  0.78977357    -0.05790
H1686       H  0.39630165  0.86179295  0.85535216     0.07970
H1687       H  0.41714550  0.85732543  0.76584109     0.09170
Cu1688     Cu  0.43119413  0.88076030  0.87181029     0.44170
Cu1689     Cu  0.44992152  0.87660027  0.79805240     0.41990
Cu1690     Cu  0.46283775  0.90971909  0.85035816     0.43880
N1691       N  0.44309811  0.89615324  0.90273302    -0.34450
N1692       N  0.45413311  0.90757842  0.89466138    -0.28700
C1693       C  0.45987098  0.91524156  0.91988895    -0.04800
C1694       C  0.45202837  0.90825135  0.94506090     0.07410
C1695       C  0.44150057  0.89618482  0.93324436     0.01210
H1696       H  0.46957906  0.92462015  0.91992550     0.08860
H1697       H  0.43329947  0.88797324  0.94589729     0.07940
N1698       N  0.47735489  0.90072885  0.81541472    -0.35900
N1699       N  0.47348312  0.88762904  0.79864273    -0.28080
C1700       C  0.48756763  0.88120082  0.78752051    -0.03320
C1701       C  0.50099446  0.89055260  0.79810722     0.05290
C1702       C  0.49382228  0.90316282  0.81483656     0.03390
H1703       H  0.48809424  0.86943105  0.77576990     0.08490
H1704       H  0.50000627  0.91243208  0.82862387     0.07330
N1705       N  0.30848388  0.82502745  0.77889887    -0.27060
N1706       N  0.30842589  0.83832081  0.76125694    -0.34920
C1707       C  0.32403229  0.84412908  0.75816234     0.01280
C1708       C  0.33453692  0.83412611  0.77489501     0.07300
C1709       C  0.32418018  0.82200352  0.78747832    -0.05790
H1710       H  0.32728175  0.85566072  0.74685001     0.07970
H1711       H  0.32758038  0.81216895  0.80296064     0.09170
Cu1712     Cu  0.28693889  0.85031015  0.74884980     0.44170
Cu1713     Cu  0.28681194  0.81362708  0.79466336     0.41990
Cu1714     Cu  0.24903657  0.83765314  0.78707393     0.43880
N1715       N  0.26642242  0.86520707  0.75317675    -0.34450
N1716       N  0.25281686  0.86092398  0.76816898    -0.28700
C1717       C  0.24415789  0.87465228  0.77441889    -0.04800
C1718       C  0.25286612  0.88829767  0.76317605     0.07410
C1719       C  0.26673578  0.88170854  0.74937751     0.01210
H1720       H  0.23322933  0.87472759  0.78868013     0.08860
H1721       H  0.27744991  0.88859114  0.74117183     0.07940
N1722       N  0.24995768  0.81461667  0.80788400    -0.35900
N1723       N  0.26362041  0.80587010  0.81043016    -0.28080
C1724       C  0.25990822  0.79145411  0.82441253    -0.03320
C1725       C  0.24307144  0.79099963  0.83113628     0.05290
C1726       C  0.23722952  0.80603578  0.82030463     0.03390
H1727       H  0.26881463  0.78179521  0.82850077     0.08490
H1728       H  0.22471317  0.81058445  0.82116720     0.07330
N1729       N  0.21056782  0.70130349  0.85581279    -0.27060
N1730       N  0.20004620  0.70686093  0.83520756    -0.34920
C1731       C  0.19961434  0.72345199  0.83680548     0.01280
C1732       C  0.21068896  0.72889930  0.85895581     0.07300
C1733       C  0.21704330  0.71432423  0.87111275    -0.05790
H1734       H  0.19372168  0.73103550  0.81965984     0.07970
H1735       H  0.22697377  0.71314446  0.88744820     0.09170
Cu1736     Cu  0.19218216  0.69372826  0.79731588     0.44170
Cu1737     Cu  0.22015175  0.67744160  0.85509856     0.41990
Cu1738     Cu  0.21960277  0.66114491  0.77802833     0.43880
N1739       N  0.19384511  0.68420381  0.75366083    -0.34450
N1740       N  0.20478277  0.67286401  0.74619576    -0.28700
C1741       C  0.20433736  0.67053699  0.71583042    -0.04800
C1742       C  0.19243574  0.68082624  0.70361958     0.07410
C1743       C  0.18602404  0.68933178  0.72828312     0.01210
H1744       H  0.21204757  0.66192519  0.70356492     0.08860
H1745       H  0.17685161  0.69899101  0.72773065     0.07940
N1746       N  0.23102733  0.64951246  0.81446987    -0.35900
N1747       N  0.23094333  0.65507886  0.84283414    -0.28080
C1748       C  0.23846194  0.64393425  0.86093693    -0.03320
C1749       C  0.24360406  0.63075151  0.84304699     0.05290
C1750       C  0.23856486  0.63476962  0.81374247     0.03390
H1751       H  0.23986779  0.64523773  0.88537885     0.08490
H1752       H  0.23949871  0.62720287  0.79348710     0.07330
N1753       N  0.27698565  0.54045385  0.87419523    -0.27060
N1754       N  0.26408442  0.53939068  0.89265100    -0.34920
C1755       C  0.25751660  0.55452008  0.89594107     0.01280
C1756       C  0.26674863  0.56579268  0.87877899     0.07300
C1757       C  0.27904125  0.55633953  0.86537041    -0.05790
H1758       H  0.24598160  0.55677977  0.90768406     0.07970
H1759       H  0.28824967  0.56048918  0.84902039     0.09170
Cu1760     Cu  0.25372399  0.51698211  0.90632796     0.44170
Cu1761     Cu  0.28935141  0.51972550  0.85837355     0.41990
Cu1762     Cu  0.26963845  0.47949859  0.87208065     0.43880
N1763       N  0.24031264  0.49507060  0.90253175    -0.34450
N1764       N  0.24568389  0.48166538  0.88853430    -0.28700
C1765       C  0.23259811  0.47188683  0.88142634    -0.04800
C1766       C  0.21829737  0.47957734  0.89129247     0.07410
C1767       C  0.22376957  0.49407748  0.90502119     0.01210
H1768       H  0.23336047  0.46090761  0.86737921     0.08860
H1769       H  0.21611592  0.50430513  0.91207826     0.07940
N1770       N  0.29274611  0.48251872  0.85196225    -0.35900
N1771       N  0.29960398  0.49716573  0.84623429    -0.28080
C1772       C  0.31440955  0.49495215  0.83296628    -0.03320
C1773       C  0.31725799  0.47804571  0.83053806     0.05290
C1774       C  0.30310695  0.47059333  0.84270819     0.03390
H1775       H  0.32241266  0.50507803  0.82585407     0.08490
H1776       H  0.30066575  0.45745487  0.84549206     0.07330
N1777       N  0.16187816  0.70092479  0.92102584    -0.27060
N1778       N  0.17211796  0.70686768  0.94198179    -0.34920
C1779       C  0.17268416  0.72347928  0.93970019     0.01280
C1780       C  0.16188335  0.72837551  0.91693137     0.07300
C1781       C  0.15572005  0.71362389  0.90494244    -0.05790
H1782       H  0.17770963  0.73142710  0.95740555     0.07970
H1783       H  0.14519113  0.71236362  0.88978381     0.09170
Cu1784     Cu  0.17786053  0.69436109  0.98180936     0.44170
Cu1785     Cu  0.15038858  0.67785475  0.92395367     0.41990
Cu1786     Cu  0.14711762  0.66315062  0.00134919     0.43880
N1787       N  0.17449597  0.68526118  0.52565256    -0.34450
N1788       N  0.16256621  0.67459032  0.53300440    -0.28700
C1789       C  0.16258503  0.67234735  0.56341406    -0.04800
C1790       C  0.17522694  0.68194721  0.57579762     0.07410
C1791       C  0.18252526  0.68999052  0.55118428     0.01210
H1792       H  0.15416970  0.66412816  0.57557053     0.08860
H1793       H  0.19259049  0.69897930  0.55181585     0.07940
N1794       N  0.13517140  0.65181585  0.96485255    -0.35900
N1795       N  0.13645085  0.65714484  0.93638219    -0.28080
C1796       C  0.12870399  0.64627141  0.91781156    -0.03320
C1797       C  0.12223977  0.63350382  0.93543852     0.05290
C1798       C  0.12673187  0.63731951  0.96509582     0.03390
H1799       H  0.12890680  0.64692909  0.89314074     0.08490
H1800       H  0.12507783  0.62953031  0.98503155     0.07330
N1801       N  0.09331480  0.54436485  0.88071947    -0.27060
N1802       N  0.10736705  0.54508191  0.86521078    -0.34920
C1803       C  0.11398594  0.56037401  0.86780024     0.01280
C1804       C  0.10362592  0.56983720  0.88565902     0.07300
C1805       C  0.09055627  0.55931776  0.89332834    -0.05790
H1806       H  0.12607847  0.56397734  0.85919258     0.07970
H1807       H  0.08066845  0.56185288  0.90926494     0.09170
Cu1808     Cu  0.11917209  0.52470648  0.84692640     0.44170
Cu1809     Cu  0.08088480  0.52217322  0.88991463     0.41990
Cu1810     Cu  0.10206372  0.48500278  0.86397636     0.43880
N1811       N  0.13207145  0.50291371  0.84084053    -0.34450
N1812       N  0.12564930  0.48816371  0.84717609    -0.28700
C1813       C  0.13791615  0.47715283  0.84983982    -0.04800
C1814       C  0.15281271  0.48531879  0.84479070     0.07410
C1815       C  0.14862034  0.50162650  0.83910973     0.01210
H1816       H  0.13632985  0.46485297  0.85941355     0.08860
H1817       H  0.15707963  0.51215312  0.83865876     0.07940
N1818       N  0.08217035  0.48476110  0.89327866    -0.35900
N1819       N  0.07437318  0.49810832  0.90267458    -0.28080
C1820       C  0.06288715  0.49351739  0.92333799    -0.03320
C1821       C  0.06367006  0.47643769  0.92764889     0.05290
C1822       C  0.07602118  0.47139528  0.90786895     0.03390
H1823       H  0.05462936  0.50214827  0.93410994     0.08490
H1824       H  0.08055922  0.45897225  0.90457834     0.07330
N1825       N  0.07068219  0.00972787  0.54591851    -0.27060
N1826       N  0.07063297  0.99834416  0.52428660    -0.34920
C1827       C  0.05501503  0.99307996  0.51937077     0.01280
C1828       C  0.04452633  0.00143790  0.53894098     0.07300
C1829       C  0.05497434  0.01199803  0.55538425    -0.05790
H1830       H  0.05172955  0.98314073  0.50387573     0.07970
H1831       H  0.05164358  0.01985271  0.57433614     0.09170
Cu1832     Cu  0.09179899  0.98737989  0.50767463     0.44170
Cu1833     Cu  0.09262027  0.01967433  0.56369228     0.41990
Cu1834     Cu  0.13017774  0.99654187  0.54574978     0.43880
N1835       N  0.11196560  0.97186810  0.50668198    -0.34450
N1836       N  0.12585858  0.97481735  0.52177399    -0.28700
C1837       C  0.13451534  0.96070341  0.52353891    -0.04800
C1838       C  0.12560832  0.94822612  0.50888662     0.07410
C1839       C  0.11143927  0.95586727  0.49833192     0.01210
H1840       H  0.14559784  0.95926561  0.53713797     0.08860
H1841       H  0.10050455  0.94979079  0.98914545     0.07940
N1842       N  0.13005794  0.01849397  0.57021430    -0.35900
N1843       N  0.11651939  0.02684534  0.57672232    -0.28080
C1844       C  0.12091662  0.04092208  0.59117865    -0.03320
C1845       C  0.13805634  0.04149156  0.59414405     0.05290
C1846       C  0.14337870  0.02701724  0.58042084     0.03390
H1847       H  0.11225381  0.05045760  0.59737460     0.08490
H1848       H  0.15603549  0.02314532  0.57715254     0.07330
N1849       N  0.95150479  0.97126993  0.56180319    -0.27060
N1850       N  0.95540838  0.97302344  0.59094046    -0.34920
C1851       C  0.97023343  0.98074207  0.59318921     0.01280
C1852       C  0.97604206  0.98390434  0.56407554     0.07300
C1853       C  0.96391547  0.97764239  0.54469007    -0.05790
H1854       H  0.97691456  0.98262268  0.61434721     0.07970
H1855       H  0.96446090  0.97702717  0.52003999     0.09170
Cu1856     Cu  0.94217847  0.96178540  0.62591067     0.44170
Cu1857     Cu  0.92990864  0.95912647  0.54747559     0.41990
Cu1858     Cu  0.91129326  0.93141160  0.60337849     0.43880
N1859       N  0.93006359  0.94606338  0.65616440    -0.34450
N1860       N  0.91903622  0.93464525  0.64801329    -0.28700
C1861       C  0.91379525  0.92642311  0.67305350    -0.04800
C1862       C  0.92209019  0.93290012  0.69812031     0.07410
C1863       C  0.93233078  0.94527286  0.68647592     0.01210
H1864       H  0.90494856  0.91622927  0.67281432     0.08860
H1865       H  0.94092606  0.95307123  0.69907809     0.07940
N1866       N  0.90002477  0.93763786  0.56270720    -0.35900
N1867       N  0.90629853  0.94857049  0.54322212    -0.28080
C1868       C  0.89380777  0.95509898  0.52702689    -0.03320
C1869       C  0.87892529  0.94815129  0.53704739     0.05290
C1870       C  0.88351627  0.93678581  0.55904040     0.03390
H1871       H  0.89514810  0.96611937  0.01305967     0.08490
H1872       H  0.87525459  0.93108193  0.57557938     0.07330
N1873       N  0.90313528  0.89546537  0.97376985    -0.27060
N1874       N  0.90009518  0.90861745  0.95678328    -0.34920
C1875       C  0.88374864  0.91132376  0.95671062     0.01280
C1876       C  0.87574491  0.89851778  0.97232196     0.07300
C1877       C  0.88866010  0.88909796  0.98382317    -0.05790
H1878       H  0.87811913  0.91995211  0.94107398     0.07970
H1879       H  0.88761650  0.87679191  0.49350939     0.09170
Cu1880     Cu  0.91385629  0.91454478  0.91849830     0.44170
Cu1881     Cu  0.92516609  0.88250914  0.97202533     0.41990
Cu1882     Cu  0.93948781  0.88058098  0.89500552     0.43880
N1883       N  0.91985265  0.90984478  0.87336813    -0.34450
N1884       N  0.92903655  0.89720126  0.86486890    -0.28700
C1885       C  0.93057069  0.89735035  0.83434486    -0.04800
C1886       C  0.92163926  0.91050091  0.82308530     0.07410
C1887       C  0.91496801  0.91817928  0.84834948     0.01210
H1888       H  0.93789085  0.88870607  0.82135698     0.08860
H1889       H  0.90753548  0.92924855  0.84861283     0.07940
N1890       N  0.95068187  0.86808923  0.93053833    -0.35900
N1891       N  0.94594577  0.86931950  0.95924017    -0.28080
C1892       C  0.95704516  0.86166006  0.97712229    -0.03320
C1893       C  0.96947760  0.85515484  0.95874670     0.05290
C1894       C  0.96478971  0.85951028  0.92926407     0.03390
H1895       H  0.95634766  0.86172290  0.00171679     0.08490
H1896       H  0.97146571  0.85741543  0.90828100     0.07330
N1897       N  0.06020995  0.82290686  0.99103885    -0.27060
N1898       N  0.05969026  0.83423715  0.51276799    -0.34920
C1899       C  0.04407292  0.83973191  0.51525862     0.01280
C1900       C  0.03435681  0.83159015  0.99381835     0.07300
C1901       C  0.04499828  0.82098217  0.97893626    -0.05790
H1902       H  0.04039209  0.84995533  0.52960310     0.07970
H1903       H  0.04211282  0.81311549  0.95961692     0.09170
Cu1904     Cu  0.08089778  0.84443634  0.53230577     0.44170
Cu1905     Cu  0.08195512  0.81215738  0.97629882     0.41990
Cu1906     Cu  0.12048321  0.82904356  0.50550893     0.43880
N1907       N  0.10320482  0.85734075  0.53621519    -0.34450
N1908       N  0.11752456  0.85196483  0.52571017    -0.28700
C1909       C  0.12831245  0.86479872  0.52402257    -0.04800
C1910       C  0.12048023  0.87887321  0.53422363     0.07410
C1911       C  0.10459741  0.87368152  0.54167498     0.01210
H1912       H  0.14019895  0.86433118  0.51264908     0.08860
H1913       H  0.09421205  0.88160724  0.54656187     0.07940
N1914       N  0.11906850  0.80821817  0.97811642    -0.35900
N1915       N  0.10500613  0.80246243  0.96662828    -0.28080
C1916       C  0.10814419  0.78913040  0.94937345    -0.03320
C1917       C  0.12504244  0.78611575  0.95026671     0.05290
C1918       C  0.13154438  0.79861036  0.96864258     0.03390
H1919       H  0.09865389  0.78222849  0.93728111     0.08490
H1920       H  0.14434470  0.80038043  0.97535922     0.07330
N1921       N  0.29094243  0.29018029  0.64781710    -0.27060
N1922       N  0.27784916  0.28908862  0.62971654    -0.34920
C1923       C  0.27218377  0.27334496  0.62972384     0.01280
C1924       C  0.28225777  0.26403385  0.64843109     0.07300
C1925       C  0.29403811  0.27507926  0.65952464    -0.05790
H1926       H  0.26077043  0.26926788  0.61896250     0.07970
H1927       H  0.30312449  0.27267096  0.67709463     0.09170
Cu1928     Cu  0.26585366  0.30930127  0.61100944     0.44170
Cu1929     Cu  0.30157742  0.31259421  0.66127611     0.41990
Cu1930     Cu  0.27981058  0.34924541  0.63610276     0.43880
N1931       N  0.25253523  0.33079033  0.60403693    -0.34450
N1932       N  0.25763272  0.34546708  0.61388688    -0.28700
C1933       C  0.24488679  0.35600744  0.61337123    -0.04800
C1934       C  0.23108188  0.34758721  0.60254743     0.07410
C1935       C  0.23640971  0.33167081  0.59661826     0.01210
H1936       H  0.24518878  0.36826181  0.62339953     0.08860
H1937       H  0.22862988  0.32101774  0.59136528     0.07940
N1938       N  0.29954127  0.34982500  0.66585864    -0.35900
N1939       N  0.30745574  0.33654291  0.67537222    -0.28080
C1940       C  0.31929297  0.34129233  0.69524007    -0.03320
C1941       C  0.31871942  0.35839686  0.69851543     0.05290
C1942       C  0.30607560  0.36333977  0.67933743     0.03390
H1943       H  0.32798810  0.33291556  0.70568597     0.08490
H1944       H  0.30189793  0.37584672  0.67531056     0.07330
N1945       N  0.22833908  0.13042268  0.68125637    -0.27060
N1946       N  0.21431591  0.12757329  0.69604616    -0.34920
C1947       C  0.21106834  0.11122025  0.69597003     0.01280
C1948       C  0.22414636  0.10310078  0.68217432     0.07300
C1949       C  0.23455023  0.11586367  0.67220656    -0.05790
H1950       H  0.20156119  0.10561083  0.71013617     0.07970
H1951       H  0.24714972  0.11462105  0.66425880     0.09170
Cu1952     Cu  0.20604031  0.14224275  0.73139529     0.44170
Cu1953     Cu  0.24199818  0.15234867  0.68412873     0.41990
Cu1954     Cu  0.23797992  0.16984614  0.75826522     0.43880
N1955       N  0.20837224  0.14920027  0.77672837    -0.34450
N1956       N  0.22075445  0.15861947  0.78664140    -0.28700
C1957       C  0.22020672  0.15933611  0.81722794    -0.04800
C1958       C  0.20679981  0.14992802  0.82720032     0.07410
C1959       C  0.19956555  0.14364705  0.80085325     0.01210
H1960       H  0.22890580  0.16629133  0.83116726     0.08860
H1961       H  0.18910760  0.13516208  0.79930196     0.07940
N1962       N  0.25205614  0.18075184  0.72419113    -0.35900
N1963       N  0.25376604  0.17432656  0.69666842    -0.28080
C1964       C  0.26194857  0.18530901  0.67882041    -0.03320
C1965       C  0.26536219  0.19935882  0.69597619     0.05290
C1966       C  0.25885751  0.19602885  0.72455505     0.03390
H1967       H  0.26385335  0.18382337  0.65453487     0.08490
H1968       H  0.25803340  0.20455328  0.74353054     0.07330
N1969       N  0.14623596  0.17543537  0.58933079    -0.27060
N1970       N  0.14586368  0.18016256  0.56043348    -0.34920
C1971       C  0.13790681  0.19463674  0.55826021     0.01280
C1972       C  0.13290967  0.19939409  0.58716624     0.07300
C1973       C  0.13848752  0.18689184  0.60634453    -0.05790
H1974       H  0.13681023  0.20164794  0.53730756     0.07970
H1975       H  0.13738737  0.18636269  0.63093922     0.09170
Cu1976     Cu  0.15797167  0.16818128  0.52531387     0.44170
Cu1977     Cu  0.15821531  0.15401086  0.60374606     0.41990
Cu1978     Cu  0.18839652  0.13926647  0.54870581     0.43880
N1979       N  0.17396407  0.15687588  0.49511263    -0.34450
N1980       N  0.18591133  0.14693578  0.50401210    -0.28700
C1981       C  0.19432757  0.14175069  0.97939498    -0.04800
C1982       C  0.18729565  0.14879955  0.95369802     0.07410
C1983       C  0.17439100  0.15827759  0.96456277     0.01210
H1984       H  0.20443749  0.13308621  0.98016818     0.08860
H1985       H  0.16605572  0.16582414  0.95127986     0.07940
N1986       N  0.18120435  0.12620468  0.58706106    -0.35900
N1987       N  0.16986349  0.13110662  0.60666705    -0.28080
C1988       C  0.16428985  0.11778569  0.62231470    -0.03320
C1989       C  0.17215749  0.10363287  0.61155302     0.05290
C1990       C  0.18301960  0.10975601  0.58952117     0.03390
H1991       H  0.15369548  0.11821098  0.63735316     0.08490
H1992       H  0.18979931  0.10274511  0.57283123     0.07330
N1993       N  0.10115029  0.29117186  0.60760054    -0.27060
N1994       N  0.11418021  0.29259113  0.62570240    -0.34920
C1995       C  0.12045134  0.27747025  0.63075965     0.01280
C1996       C  0.11092613  0.26580787  0.61515704     0.07300
C1997       C  0.09875991  0.27504322  0.60075687    -0.05790
H1998       H  0.13199551  0.27541044  0.64260095     0.07970
H1999       H  0.08941778  0.27051985  0.58502256     0.09170
Cu2000     Cu  0.12526693  0.31508453  0.63681270     0.44170
Cu2001     Cu  0.08914210  0.31156192  0.58905759     0.41990
Cu2002     Cu  0.11251332  0.35034622  0.59227501     0.43880
N2003       N  0.13927570  0.33662768  0.63237480    -0.34450
N2004       N  0.13506238  0.34913725  0.61457883    -0.28700
C2005       C  0.14850238  0.35877800  0.60943470    -0.04800
C2006       C  0.16177507  0.35205610  0.62489492     0.07410
C2007       C  0.15542660  0.33811690  0.63935593     0.01210
H2008       H  0.14898530  0.36881451  0.59301748     0.08860
H2009       H  0.16253544  0.32850240  0.65032638     0.07940
N2010       N  0.08947670  0.34792742  0.57187304    -0.35900
N2011       N  0.08083779  0.33391147  0.57112097    -0.28080
C2012       C  0.06607618  0.33681511  0.55810122    -0.03320
C2013       C  0.06525788  0.35350998  0.55014777     0.05290
C2014       C  0.08050572  0.36007204  0.55920399     0.03390
H2015       H  0.05638886  0.32750377  0.55588800     0.08490
H2016       H  0.08488193  0.37274232  0.55745625     0.07330
N2017       N  0.92949688  0.36340131  0.56564628    -0.27060
N2018       N  0.92709761  0.36101841  0.59519755    -0.34920
C2019       C  0.91212069  0.35396193  0.59965751     0.01280
C2020       C  0.90453746  0.35191144  0.57163470     0.07300
C2021       C  0.91585704  0.35814113  0.55051814    -0.05790
H2022       H  0.90666109  0.35164815  0.62184592     0.07970
H2023       H  0.91411003  0.35918941  0.52610540     0.09170
Cu2024     Cu  0.94247999  0.37045352  0.62876063     0.44170
Cu2025     Cu  0.95119875  0.37434672  0.54841439     0.41990
Cu2026     Cu  0.97294616  0.40001498  0.60449845     0.43880
N2027       N  0.95549564  0.38554244  0.65857639    -0.34450
N2028       N  0.96651068  0.39681725  0.64973179    -0.28700
C2029       C  0.97205440  0.40519071  0.67432221    -0.04800
C2030       C  0.96382700  0.39904641  0.69971608     0.07410
C2031       C  0.95347828  0.38658300  0.68890194     0.01210
H2032       H  0.98085832  0.41542360  0.67358529     0.08860
H2033       H  0.94478959  0.37909755  0.70194884     0.07940
N2034       N  0.98248152  0.39392450  0.56242414    -0.35900
N2035       N  0.97525749  0.38378658  0.54266851    -0.28080
C2036       C  0.98696542  0.37779535  0.52387435    -0.03320
C2037       C  0.00235428  0.38422558  0.53263994     0.05290
C2038       C  0.99876417  0.39474742  0.55660440     0.03390
H2039       H  0.98458771  0.36806023  0.00747099     0.08490
H2040       H  0.00765928  0.40028606  0.57215422     0.07330
N2041       N  0.80890141  0.32791821  0.57310379    -0.27060
N2042       N  0.80775991  0.33669585  0.54776332    -0.34920
C2043       C  0.82295923  0.34164091  0.53887389     0.01280
C2044       C  0.83447370  0.33592748  0.55982161     0.07300
C2045       C  0.82500496  0.32707025  0.58107721    -0.05790
H2046       H  0.82515227  0.34939184  0.51913685     0.07970
H2047       H  0.82937945  0.32116629  0.60169456     0.09170
Cu2048     Cu  0.78565441  0.34547921  0.53097500     0.44170
Cu2049     Cu  0.78784283  0.31911376  0.59594191     0.41990
Cu2050     Cu  0.75061278  0.34337218  0.58076642     0.43880
N2051       N  0.76755412  0.36326542  0.53210370    -0.34450
N2052       N  0.75539596  0.36344180  0.55218728    -0.28700
C2053       C  0.74919174  0.37885825  0.55338094    -0.04800
C2054       C  0.75799723  0.38902071  0.53308058     0.07410
C2055       C  0.76936741  0.37839246  0.51985217     0.01210
H2056       H  0.74004968  0.38249673  0.56995319     0.08860
H2057       H  0.77962278  0.38162842  0.50508479     0.07940
N2058       N  0.75043482  0.32050795  0.60274265    -0.35900
N2059       N  0.76386451  0.31178427  0.60846694    -0.28080
C2060       C  0.75919143  0.29676888  0.61911438    -0.03320
C2061       C  0.74201867  0.29585013  0.61977960     0.05290
C2062       C  0.73693041  0.31123750  0.60946478     0.03390
H2063       H  0.76764608  0.28673174  0.62346722     0.08490
H2064       H  0.72435501  0.31516380  0.60544928     0.07330
N2065       N  0.94063305  0.46594640  0.95867869    -0.27060
N2066       N  0.93537354  0.46606101  0.93013609    -0.34920
C2067       C  0.92152453  0.47502783  0.92829822     0.01280
C2068       C  0.91765843  0.48095981  0.95710430     0.07300
C2069       C  0.93023643  0.47498549  0.97578122    -0.05790
H2070       H  0.91435824  0.47636804  0.90760011     0.07970
H2071       H  0.93174096  0.47674175  0.50005688     0.09170
Cu2072     Cu  0.94607010  0.45288692  0.89505003     0.44170
Cu2073     Cu  0.96118521  0.45253557  0.97277359     0.41990
Cu2074     Cu  0.97487183  0.42219197  0.91721131     0.43880
N2075       N  0.95736523  0.43732293  0.86425114    -0.34450
N2076       N  0.96800607  0.42583192  0.87240450    -0.28700
C2077       C  0.97326909  0.41784256  0.84735307    -0.04800
C2078       C  0.96530548  0.42452102  0.82233398     0.07410
C2079       C  0.95525055  0.43675869  0.83388127     0.01210
H2080       H  0.98175853  0.40756714  0.84749906     0.08860
H2081       H  0.94680163  0.44448298  0.82120820     0.07940
N2082       N  0.98768070  0.42803326  0.95639058    -0.35900
N2083       N  0.98333227  0.43965018  0.97588712    -0.28080
C2084       C  0.99705553  0.44547383  0.48982262    -0.03320
C2085       C  0.01090922  0.43770984  0.97759304     0.05290
C2086       C  0.00413543  0.42624348  0.95736196     0.03390
H2087       H  0.99703382  0.45658276  0.50356489     0.08490
H2088       H  0.01061708  0.41970406  0.93965333     0.07330
N2089       N  0.82678982  0.51577616  0.97945743    -0.27060
N2090       N  0.82720597  0.50516756  0.00244247    -0.34920
C2091       C  0.84276602  0.49982333  0.00605423     0.01280
C2092       C  0.85281411  0.50730977  0.98422672     0.07300
C2093       C  0.84219316  0.51749827  0.96788254    -0.05790
H2094       H  0.84622389  0.49021024  0.02199852     0.07970
H2095       H  0.84519630  0.52519297  0.94837970     0.09170
Cu2096     Cu  0.80636022  0.49568950  0.52405852     0.44170
Cu2097     Cu  0.80475067  0.52566553  0.96309091     0.41990
Cu2098     Cu  0.76680869  0.50718056  0.99553218     0.43880
N2099       N  0.78491827  0.48218250  0.53268794    -0.34450
N2100       N  0.77027105  0.48613840  0.52160065    -0.28700
C2101       C  0.75996458  0.47293079  0.52396568    -0.04800
C2102       C  0.76861890  0.46001667  0.53695417     0.07410
C2103       C  0.78434139  0.46639704  0.54238305     0.01210
H2104       H  0.74789764  0.47209044  0.51326241     0.08860
H2105       H  0.79513050  0.45942058  0.54901202     0.07940
N2106       N  0.76722598  0.52680037  0.96509711    -0.35900
N2107       N  0.78078964  0.53328364  0.95276820    -0.28080
C2108       C  0.77648758  0.54613333  0.93496636    -0.03320
C2109       C  0.75937408  0.54792628  0.93618543     0.05290
C2110       C  0.75402070  0.53537883  0.95566454     0.03390
H2111       H  0.78532551  0.55398466  0.92304485     0.08490
H2112       H  0.74161190  0.53313920  0.96408185     0.07330
C2113       C  0.90223446  0.48991598  0.96551104    -0.05240
C2114       C  0.89300230  0.49771202  0.94242454    -0.32670
C2115       C  0.87722227  0.50403210  0.94819216     0.36580
C2116       C  0.87036864  0.50298163  0.97777138    -0.05590
C2117       C  0.88005508  0.49623065  0.00128259    -0.32560
C2118       C  0.89577065  0.48975790  0.99546603     0.36490
H2119       H  0.89773810  0.49847420  0.91934459     0.16860
O2120       O  0.86839660  0.51043199  0.92427689    -0.60060
H2121       H  0.87525367  0.49549786  0.52433729     0.16870
O2122       O  0.90408728  0.48235897  0.51899343    -0.60160
H2123       H  0.90948974  0.49160900  0.53029785     0.43870
H2124       H  0.86236594  0.50082228  0.91526296     0.43830
C2125       C  0.76451882  0.44225454  0.53380220    -0.05240
C2126       C  0.75118944  0.43512998  0.54979065    -0.32670
C2127       C  0.74816044  0.41793727  0.54864343     0.36580
C2128       C  0.75866578  0.40758079  0.53132261    -0.05590
C2129       C  0.77107722  0.41523125  0.51332996    -0.32560
C2130       C  0.77416021  0.43225805  0.51478838     0.36490
H2131       H  0.74339112  0.44284387  0.56385686     0.16860
O2132       O  0.73510174  0.41154340  0.56500980    -0.60060
H2133       H  0.77892816  0.40812660  0.49847147     0.16870
O2134       O  0.78653240  0.43909503  0.49709717    -0.60160
H2135       H  0.79702015  0.43634316  0.50766062     0.43870
H2136       H  0.72566489  0.41124473  0.55050218     0.43830
C2137       C  0.96536787  0.41827446  0.79082267    -0.05240
C2138       C  0.95015673  0.41527729  0.77634134    -0.32670
C2139       C  0.94956277  0.40878730  0.74685930     0.36580
C2140       C  0.96436372  0.40568833  0.73099265    -0.05590
C2141       C  0.97965124  0.40908487  0.74513682    -0.32560
C2142       C  0.98022354  0.41515544  0.77510339     0.36490
H2143       H  0.93864165  0.41768565  0.78816757     0.16860
O2144       O  0.93444224  0.40618555  0.73323580    -0.60060
H2145       H  0.99112487  0.40678844  0.73310393     0.16870
O2146       O  0.99528892  0.41816697  0.78865504    -0.60160
H2147       H  0.99799587  0.42992334  0.78387910     0.43870
H2148       H  0.92992032  0.39588230  0.74264893     0.43830
C2149       C  0.88704367  0.34693297  0.56656488    -0.05240
C2150       C  0.87691829  0.35683671  0.54832973    -0.32670
C2151       C  0.85988658  0.35346730  0.54572601     0.36580
C2152       C  0.85266358  0.33966941  0.56107696    -0.05590
C2153       C  0.86302649  0.32954746  0.57877217    -0.32560
C2154       C  0.88000219  0.33313388  0.58170018     0.36490
H2155       H  0.88208774  0.36771886  0.53709863     0.16860
O2156       O  0.85035945  0.36448039  0.52986451    -0.60060
H2157       H  0.85798758  0.31881160  0.59059095     0.16870
O2158       O  0.88959499  0.32310446  0.59958865    -0.60160
H2159       H  0.89424829  0.31480060  0.58540120     0.43870
H2160       H  0.85272721  0.36234202  0.50801106     0.43830
C2161       C  0.05031912  0.36231990  0.53855392    -0.05240
C2162       C  0.03686725  0.35292193  0.52717378    -0.32670
C2163       C  0.02136053  0.36005387  0.52225899     0.36580
C2164       C  0.01909483  0.37709456  0.52794275    -0.05590
C2165       C  0.03305762  0.38687532  0.53537862    -0.32560
C2166       C  0.04845449  0.37968482  0.54112959     0.36490
H2167       H  0.03799778  0.33971399  0.52357422     0.16860
O2168       O  0.00836763  0.34992269  0.51392444    -0.60060
H2169       H  0.03177278  0.40008743  0.53902966     0.16870
O2170       O  0.06118383  0.38976308  0.55087916    -0.60160
H2171       H  0.05945381  0.39103548  0.57317155     0.43870
H2172       H  0.00421659  0.34495953  0.53324993     0.43830
C2173       C  0.12551192  0.21552730  0.59576571    -0.05240
C2174       C  0.12930909  0.22271562  0.62413804    -0.32670
C2175       C  0.12421040  0.23883585  0.63124110     0.36580
C2176       C  0.11497545  0.24806385  0.60989949    -0.05590
C2177       C  0.11031868  0.24043740  0.58231738    -0.32560
C2178       C  0.11541833  0.22436391  0.57524495     0.36490
H2179       H  0.13679445  0.21610185  0.64054268     0.16860
O2180       O  0.12806702  0.24531063  0.65934275    -0.60060
H2181       H  0.10312133  0.24710612  0.56556618     0.16870
O2182       O  0.11056047  0.21752509  0.54798205    -0.60160
H2183       H  0.10038335  0.21098926  0.55273523     0.43870
H2184       H  0.14022147  0.24733058  0.65899600     0.43830
C2185       C  0.20159953  0.14748361  0.85929936    -0.05240
C2186       C  0.21372094  0.14702637  0.88229717    -0.32670
C2187       C  0.20925326  0.14657117  0.91315849     0.36580
C2188       C  0.19240786  0.14702577  0.92147646    -0.05590
C2189       C  0.18027619  0.14683992  0.89849158    -0.32560
C2190       C  0.18474126  0.14681308  0.86760681     0.36490
H2191       H  0.22675619  0.14733777  0.87636387     0.16860
O2192       O  0.22147218  0.14697165  0.93492389    -0.60060
H2193       H  0.16725129  0.14699827  0.90448118     0.16870
O2194       O  0.17253239  0.14738683  0.84586836    -0.60160
H2195       H  0.16835144  0.13580768  0.84400306     0.43870
H2196       H  0.22553974  0.13543512  0.93619835     0.43830
C2197       C  0.21367668  0.35212628  0.60723193    -0.05240
C2198       C  0.20244101  0.35047113  0.58303432    -0.32670
C2199       C  0.18541146  0.35193541  0.58811173     0.36580
C2200       C  0.17945309  0.35455634  0.61792234    -0.05590
C2201       C  0.19071954  0.35682829  0.64192160    -0.32560
C2202       C  0.20778282  0.35591151  0.63666313     0.36490
H2203       H  0.20684799  0.34739437  0.56039677     0.16860
O2204       O  0.17463953  0.34918371  0.56438086    -0.60060
H2205       H  0.18624216  0.35860201  0.66499703     0.16870
O2206       O  0.21847241  0.35713092  0.66092958    -0.60160
H2207       H  0.22049562  0.36919483  0.66368492     0.43870
H2208       H  0.17347527  0.36012289  0.55427731     0.43830
C2209       C  0.27026991  0.21584036  0.68425031    -0.05240
C2210       C  0.25985457  0.22929224  0.68974152    -0.32670
C2211       C  0.26362294  0.24496725  0.67783125     0.36580
C2212       C  0.27825995  0.24750397  0.66093366    -0.05590
C2213       C  0.28896637  0.23419092  0.65609599    -0.32560
C2214       C  0.28488320  0.21830686  0.66719552     0.36490
H2215       H  0.24854286  0.22756165  0.70276707     0.16860
O2216       O  0.25316489  0.25787484  0.68355479    -0.60060
H2217       H  0.30032239  0.23606314  0.64327482     0.16870
O2218       O  0.29546702  0.20542503  0.66217312    -0.60160
H2219       H  0.29248150  0.20109978  0.64169145     0.43870
H2220       H  0.24419861  0.25678173  0.66816993     0.43830
C2221       C  0.98551321  0.84748623  0.96805575    -0.05240
C2222       C  0.99791750  0.84509021  0.94589052    -0.32670
C2223       C  0.01363021  0.83944246  0.95389294     0.36580
C2224       C  0.01738284  0.83605249  0.98458764    -0.05590
C2225       C  0.00502976  0.83786948  0.50674298    -0.32560
C2226       C  0.98912599  0.84316732  0.99869492     0.36490
H2227       H  0.99580009  0.84802843  0.92215985     0.16860
O2228       O  0.02545788  0.83800419  0.93158928    -0.60060
H2229       H  0.00771671  0.83510758  0.53044062     0.16870
O2230       O  0.97738637  0.84411623  0.52117216    -0.60160
H2231       H  0.97143258  0.83327719  0.52067083     0.43870
H2232       H  0.03128595  0.84891094  0.93105698     0.43830
C2233       C  0.92148643  0.92711029  0.73013398    -0.05240
C2234       C  0.93620794  0.92715968  0.74721005    -0.32670
C2235       C  0.93627953  0.92176655  0.77748429     0.36580
C2236       C  0.92146246  0.91642469  0.79136965    -0.05590
C2237       C  0.90662874  0.91660737  0.77470912    -0.32560
C2238       C  0.90659597  0.92167596  0.74402989     0.36490
H2239       H  0.94779534  0.93117758  0.73692719     0.16860
O2240       O  0.95091398  0.92182430  0.79342425    -0.60060
H2241       H  0.89513517  0.91258504  0.78535457     0.16870
O2242       O  0.89190413  0.92192338  0.72828594    -0.60160
H2243       H  0.88952095  0.91019005  0.72287877     0.43870
H2244       H  0.95131362  0.93265768  0.80411183     0.43830
C2245       C  0.14841812  0.05577585  0.60463243    -0.05240
C2246       C  0.16451575  0.05808785  0.59306140    -0.32670
C2247       C  0.17331592  0.07292119  0.59806127     0.36580
C2248       C  0.16576217  0.08615390  0.61383316    -0.05590
C2249       C  0.15061068  0.08288671  0.62873937    -0.32560
C2250       C  0.14206871  0.06785528  0.62451184     0.36490
H2251       H  0.17010177  0.04872896  0.57884150     0.16860
O2252       O  0.18901441  0.07440077  0.58635829    -0.60060
H2253       H  0.14481097  0.09220657  0.64267256     0.16870
O2254       O  0.12724782  0.06539846  0.63923665    -0.60160
H2255       H  0.12997912  0.05887354  0.65773927     0.43870
H2256       H  0.19650981  0.07214909  0.60378081     0.43830
C2257       C  0.12747804  0.93011057  0.51278738    -0.05240
C2258       C  0.13346167  0.92380182  0.54061294    -0.32670
C2259       C  0.13214164  0.90684350  0.54728081     0.36580
C2260       C  0.12492381  0.89600083  0.52593419    -0.05590
C2261       C  0.12012624  0.90202443  0.49729839    -0.32560
C2262       C  0.12129170  0.91897817  0.49064306     0.36490
H2263       H  0.13819079  0.93210898  0.55804830     0.16860
O2264       O  0.13696291  0.90115585  0.57538769    -0.60060
H2265       H  0.11472146  0.89365563  0.48058833     0.16870
O2266       O  0.11622422  0.92459615  0.96259235    -0.60160
H2267       H  0.10400814  0.92303398  0.96230144     0.43870
H2268       H  0.14859816  0.89763664  0.57264918     0.43830
C2269       C  0.99315228  0.98886008  0.55604700    -0.05240
C2270       C  0.99923792  0.00470451  0.56358690    -0.32670
C2271       C  0.01577722  0.00921750  0.55741211     0.36580
C2272       C  0.02664324  0.99759937  0.54432955    -0.05590
C2273       C  0.02035775  0.98174707  0.53684062    -0.32560
C2274       C  0.00379752  0.97741039  0.54240531     0.36490
H2275       H  0.99111209  0.01362105  0.57414150     0.16860
O2276       O  0.02108948  0.02501203  0.56414180    -0.60060
H2277       H  0.02835874  0.97241435  0.52733220     0.16870
O2278       O  0.99837523  0.96158469  0.53610750    -0.60160
H2279       H  0.99511453  0.96178097  0.51428535     0.43870
H2280       H  0.01964972  0.03139641  0.54496923     0.43830
C2281       C  0.02759179  0.44568723  0.97355007    -0.05240
C2282       C  0.03013793  0.46218272  0.98303735    -0.32670
C2283       C  0.04257431  0.47213822  0.96993214     0.36580
C2284       C  0.05288416  0.46561539  0.94704158    -0.05590
C2285       C  0.05219196  0.44843202  0.94164175    -0.32560
C2286       C  0.03985033  0.43841962  0.95503217     0.36490
H2287       H  0.02187124  0.46792291  0.99915185     0.16860
O2288       O  0.04445095  0.48820374  0.97971338    -0.60060
H2289       H  0.06065752  0.44270446  0.92583251     0.16870
O2290       O  0.03984379  0.42162261  0.94977097    -0.60160
H2291       H  0.03912132  0.42023035  0.92729438     0.43870
H2292       H  0.03439364  0.49403685  0.97266479     0.43830
C2293       C  0.11702380  0.61710104  0.92410510    -0.05240
C2294       C  0.10074634  0.61428675  0.91392489    -0.32670
C2295       C  0.09604249  0.59880740  0.90180947     0.36580
C2296       C  0.10781474  0.58611844  0.89928270    -0.05590
C2297       C  0.12404519  0.58903261  0.90970960    -0.32560
C2298       C  0.12861115  0.60429735  0.92237662     0.36490
H2299       H  0.09174447  0.62411459  0.91520012     0.16860
O2300       O  0.08008061  0.59634105  0.89188462    -0.60060
H2301       H  0.13322183  0.57937588  0.90827419     0.16870
O2302       O  0.14460433  0.60679350  0.93213592    -0.60160
H2303       H  0.14461519  0.60329040  0.95385290     0.43870
H2304       H  0.08022038  0.59948384  0.86998496     0.43830
C2305       C  0.20107980  0.47684146  0.88070276    -0.05240
C2306       C  0.18808585  0.48137860  0.90014436    -0.32670
C2307       C  0.17200574  0.48306928  0.88891541     0.36580
C2308       C  0.16877008  0.48038919  0.85776379    -0.05590
C2309       C  0.18138866  0.47476186  0.83867936    -0.32560
C2310       C  0.19748710  0.47278733  0.85000810     0.36490
H2311       H  0.19060128  0.48452711  0.92375485     0.16860
O2312       O  0.15980558  0.48864501  0.90798648    -0.60060
H2313       H  0.17894863  0.47269054  0.81464915     0.16870
O2314       O  0.20984202  0.46856581  0.83012568    -0.60160
H2315       H  0.20925417  0.45629282  0.82880886     0.43870
H2316       H  0.15425937  0.47847949  0.91596246     0.43830
C2317       C  0.15250653  0.74398477  0.91867148    -0.05240
C2318       C  0.13517040  0.74307536  0.92090752    -0.32670
C2319       C  0.12604195  0.75670443  0.93037662     0.36580
C2320       C  0.13414409  0.77191661  0.93698190    -0.05590
C2321       C  0.15142744  0.77311651  0.93272588    -0.32560
C2322       C  0.16059139  0.75929290  0.92378284     0.36490
H2323       H  0.12865852  0.73137363  0.91775530     0.16860
O2324       O  0.10936425  0.75451105  0.93506957    -0.60060
H2325       H  0.15797290  0.78466991  0.93716349     0.16870
O2326       O  0.17751164  0.76066547  0.92154878    -0.60160
H2327       H  0.17975555  0.76270351  0.89959023     0.43870
H2328       H  0.10829175  0.75073389  0.95655554     0.43830
C2329       C  0.18794225  0.68246769  0.67105974    -0.05240
C2330       C  0.20046274  0.68233626  0.64881722    -0.32670
C2331       C  0.19653730  0.68294330  0.61769281     0.36580
C2332       C  0.17983298  0.68307245  0.60839152    -0.05590
C2333       C  0.16732118  0.68343620  0.63064164    -0.32560
C2334       C  0.17127531  0.68344899  0.66177908     0.36490
H2335       H  0.21335397  0.68168301  0.65559279     0.16860
O2336       O  0.20906450  0.68230126  0.59658550    -0.60060
H2337       H  0.15440986  0.68361842  0.62385809     0.16870
O2338       O  0.15872125  0.68332891  0.68288842    -0.60160
H2339       H  0.15514412  0.69502271  0.68435996     0.43870
H2340       H  0.21365429  0.69376073  0.59549734     0.43830
C2341       C  0.25106542  0.61492036  0.85327394    -0.05240
C2342       C  0.24738591  0.60860925  0.88244511    -0.32670
C2343       C  0.25294349  0.59296200  0.89156412     0.36580
C2344       C  0.26233222  0.58320896  0.87135810    -0.05590
C2345       C  0.26681681  0.58996183  0.84289766    -0.32560
C2346       C  0.26124646  0.60559212  0.83375375     0.36490
H2347       H  0.23973542  0.61558823  0.89800289     0.16860
O2348       O  0.24895432  0.58731834  0.92021210    -0.60060
H2349       H  0.27421473  0.58291878  0.82704540     0.16870
O2350       O  0.26617537  0.61179037  0.80595731    -0.60160
H2351       H  0.26025445  0.60494765  0.79051596     0.43870
H2352       H  0.25858254  0.59040061  0.93318554     0.43830
C2353       C  0.23362733  0.77665880  0.84431504    -0.05240
C2354       C  0.24230703  0.76429755  0.86003932    -0.32670
C2355       C  0.23477957  0.74908022  0.86746126     0.36580
C2356       C  0.21802552  0.74599502  0.85967728    -0.05590
C2357       C  0.20884808  0.75912406  0.84733698    -0.32560
C2358       C  0.21646029  0.77424979  0.83944301     0.36490
H2359       H  0.25530827  0.76603317  0.86540838     0.16860
O2360       O  0.24431628  0.73712749  0.88073239    -0.60060
H2361       H  0.19583872  0.75736433  0.84198630     0.16870
O2362       O  0.20719439  0.78590566  0.82467551    -0.60160
H2363       H  0.20114538  0.79175917  0.84106744     0.43870
H2364       H  0.25040578  0.73192210  0.86364732     0.43830
C2365       C  0.38484125  0.84882332  0.79667628    -0.05240
C2366       C  0.37526835  0.83972633  0.81779887    -0.32670
C2367       C  0.35922259  0.83415900  0.81064231     0.36580
C2368       C  0.35227005  0.83780613  0.78188169    -0.05590
C2369       C  0.36206750  0.84640795  0.76033572    -0.32560
C2370       C  0.37823966  0.85178212  0.76740129     0.36490
H2371       H  0.38009747  0.83720108  0.84038749     0.16860
O2372       O  0.35006572  0.82632410  0.83287797    -0.60060
H2373       H  0.35703971  0.84933036  0.73806326     0.16870
O2374       O  0.38693634  0.86097244  0.74630075    -0.60160
H2375       H  0.39142368  0.85276703  0.73173626     0.43870
H2376       H  0.35419434  0.81479400  0.83344647     0.43830
C2377       C  0.45541651  0.91963620  0.54070704    -0.05240
C2378       C  0.45698797  0.93234558  0.51889890    -0.32670
C2379       C  0.45678158  0.92876261  0.98762466     0.36580
C2380       C  0.45440904  0.91228664  0.97773016    -0.05590
C2381       C  0.45333162  0.89953570  0.49957575    -0.32560
C2382       C  0.45408260  0.90307191  0.53083163     0.36490
H2383       H  0.45816764  0.94515297  0.52612980     0.16860
O2384       O  0.45772798  0.94157122  0.96703109    -0.60060
H2385       H  0.45168568  0.88676421  0.49241580     0.16870
O2386       O  0.45228934  0.89036634  0.55147653    -0.60160
H2387       H  0.46336889  0.88522910  0.55277047     0.43870
H2388       H  0.46967172  0.94457652  0.96584566     0.43830
C2389       C  0.24637376  0.05886655  0.71641102    -0.05240
C2390       C  0.25108778  0.06506160  0.68768905    -0.32670
C2391       C  0.24290080  0.07858582  0.67464540     0.36580
C2392       C  0.22992406  0.08626147  0.69064875    -0.05590
C2393       C  0.22436677  0.07903816  0.71815568    -0.32560
C2394       C  0.23241508  0.06549735  0.73098436     0.36490
H2395       H  0.26143762  0.05968653  0.67564822     0.16860
O2396       O  0.24771152  0.08428339  0.64640712    -0.60060
H2397       H  0.21450614  0.08449926  0.73127074     0.16870
O2398       O  0.22752681  0.05999774  0.75927989    -0.60160
H2399       H  0.21733914  0.05326970  0.75563324     0.43870
H2400       H  0.25925942  0.08843661  0.64892818     0.43830
C2401       C  0.25752816  0.93837336  0.79337081    -0.05240
C2402       C  0.24954686  0.92677353  0.81223883    -0.32670
C2403       C  0.24641138  0.91060747  0.80183690     0.36580
C2404       C  0.25152965  0.90592252  0.77222696    -0.05590
C2405       C  0.25827322  0.91807026  0.75266938    -0.32560
C2406       C  0.26136931  0.93416218  0.76310379     0.36490
H2407       H  0.24651775  0.92999715  0.83556974     0.16860
O2408       O  0.23984078  0.89920550  0.82182955    -0.60060
H2409       H  0.26205795  0.91482495  0.72973083     0.16870
O2410       O  0.26879100  0.94553243  0.74398199    -0.60160
H2411       H  0.28085990  0.94359329  0.74591061     0.43870
H2412       H  0.22768646  0.90082223  0.82090731     0.43830
C2413       C  0.36539328  0.99817160  0.75152584    -0.05240
C2414       C  0.38056456  0.00320041  0.76427337    -0.32670
C2415       C  0.39554465  0.99770531  0.75184666     0.36580
C2416       C  0.39540446  0.98691621  0.72648002    -0.05590
C2417       C  0.38012391  0.98232360  0.71337083    -0.32560
C2418       C  0.36522418  0.98777380  0.72583689     0.36490
H2419       H  0.38077870  0.01125130  0.78405469     0.16860
O2420       O  0.41019654  0.00296506  0.76466137    -0.60060
H2421       H  0.37963648  0.97400060  0.69400823     0.16870
O2422       O  0.35050343  0.98270693  0.71298817    -0.60160
H2423       H  0.34752723  0.97219207  0.72355491     0.43870
H2424       H  0.41363781  0.01284485  0.75259330     0.43830
C2425       C  0.83357104  0.97322821  0.55611353    -0.05240
C2426       C  0.83317987  0.95648413  0.54683013    -0.32670
C2427       C  0.84775120  0.94835072  0.53835708     0.36580
C2428       C  0.86301390  0.95697839  0.53862369    -0.05590
C2429       C  0.86330872  0.97383930  0.54624132    -0.32560
C2430       C  0.84891267  0.98192510  0.55517276     0.36490
H2431       H  0.82163880  0.94948969  0.54688425     0.16860
O2432       O  0.84706013  0.93179425  0.53122285    -0.60060
H2433       H  0.87499154  0.98058618  0.54751248     0.16870
O2434       O  0.85043918  0.99788697  0.56557471    -0.60160
H2435       H  0.85179284  0.00482794  0.54699749     0.43870
H2436       H  0.84664757  0.93138741  0.50860507     0.43830
C2437       C  0.76426627  0.08459644  0.62030739    -0.05240
C2438       C  0.76810119  0.09150084  0.59165595    -0.32670
C2439       C  0.76242949  0.10720567  0.58330521     0.36580
C2440       C  0.75281326  0.11649251  0.60383427    -0.05590
C2441       C  0.74970388  0.10999803  0.63309549    -0.32560
C2442       C  0.75533687  0.09423106  0.64140383     0.36490
H2443       H  0.77508175  0.08453822  0.57505424     0.16860
O2444       O  0.76674499  0.11353205  0.55526410    -0.60060
H2445       H  0.74246028  0.11694512  0.64935881     0.16870
O2446       O  0.75189675  0.08836521  0.67013937    -0.60160
H2447       H  0.76179304  0.09129587  0.68253255     0.43870
H2448       H  0.76040477  0.10682933  0.54017545     0.43830
C2449       C  0.52249427  0.94552524  0.70816874    -0.05240
C2450       C  0.52958883  0.94160891  0.67976428    -0.32670
C2451       C  0.54279998  0.95093222  0.66793790     0.36580
C2452       C  0.54939036  0.96438922  0.68464717    -0.05590
C2453       C  0.54328767  0.96747029  0.71408067    -0.32560
C2454       C  0.53013257  0.95799937  0.72606636     0.36490
H2455       H  0.52423413  0.93210515  0.66531266     0.16860
O2456       O  0.54830881  0.94746502  0.63904935    -0.60060
H2457       H  0.54850987  0.97748774  0.72761294     0.16870
O2458       O  0.52444933  0.96151242  0.75480279    -0.60160
H2459       H  0.52985550  0.95334578  0.76837676     0.43870
H2460       H  0.54137291  0.95422908  0.62522706     0.43830
C2461       C  0.66967439  0.98750364  0.59815954    -0.05240
C2462       C  0.68259852  0.99657686  0.58426227    -0.32670
C2463       C  0.69900660  0.99459341  0.59359071     0.36580
C2464       C  0.70278615  0.98324022  0.61688202    -0.05590
C2465       C  0.69015091  0.97343214  0.62963467    -0.32560
C2466       C  0.67365477  0.97539996  0.62036319     0.36490
H2467       H  0.67991411  0.00576565  0.56693870     0.16860
O2468       O  0.71124808  0.00424901  0.58060856    -0.60060
H2469       H  0.69296260  0.96481020  0.64786310     0.16870
O2470       O  0.66150826  0.96647085  0.63514374    -0.60160
H2471       H  0.66151825  0.95536977  0.62541787     0.43870
H2472       H  0.71112810  0.01484956  0.59206424     0.43830
C2473       C  0.71682315  0.24844680  0.62475457    -0.05240
C2474       C  0.71053703  0.26122021  0.60623439    -0.32670
C2475       C  0.71796825  0.27699609  0.60558335     0.36580
C2476       C  0.73189356  0.28048611  0.62402064    -0.05590
C2477       C  0.73714382  0.26835896  0.64477077    -0.32560
C2478       C  0.72955396  0.25261589  0.64572501     0.36490
H2479       H  0.70038126  0.25893027  0.59068580     0.16860
O2480       O  0.71213529  0.28846716  0.58522817    -0.60060
H2481       H  0.74748235  0.27096703  0.65988516     0.16870
O2482       O  0.73509450  0.24138831  0.66675716    -0.60160
H2483       H  0.72716309  0.24201914  0.68399932     0.43870
H2484       H  0.71825323  0.28642286  0.56598737     0.43830
C2485       C  0.68086211  0.18637957  0.86353479    -0.05240
C2486       C  0.66829651  0.18688073  0.88569482    -0.32670
C2487       C  0.67218386  0.18694455  0.91689131     0.36580
C2488       C  0.68881876  0.18587907  0.92630243    -0.05590
C2489       C  0.70137874  0.18559550  0.90414843    -0.32560
C2490       C  0.69753802  0.18613674  0.87299765     0.36490
H2491       H  0.65540602  0.18713505  0.87879554     0.16860
O2492       O  0.65959871  0.18695069  0.93793036    -0.60060
H2493       H  0.71424870  0.18483802  0.91101912     0.16870
O2494       O  0.71011960  0.18529362  0.85202792    -0.60160
H2495       H  0.71491767  0.19667207  0.85103001     0.43870
H2496       H  0.65630001  0.19871650  0.93969521     0.43830
C2497       C  0.60420255  0.08960323  0.65395899    -0.05240
C2498       C  0.60712763  0.09120561  0.68532487    -0.32670
C2499       C  0.61372835  0.10593393  0.69747271     0.36580
C2500       C  0.61737793  0.11960388  0.67811400    -0.05590
C2501       C  0.61340895  0.11816702  0.64686633    -0.32560
C2502       C  0.60702074  0.10333702  0.63479613     0.36490
H2503       H  0.60514176  0.08067468  0.70035485     0.16860
O2504       O  0.61750764  0.10625982  0.72794213    -0.60060
H2505       H  0.61554187  0.12842411  0.63135999     0.16870
O2506       O  0.60391049  0.10228302  0.60407004    -0.60160
H2507       H  0.59206428  0.10516481  0.60175667     0.43870
H2508       H  0.60685967  0.10841341  0.73843476     0.43830
C2509       C  0.33252393  0.46960978  0.81981195    -0.05240
C2510       C  0.33178303  0.45273644  0.81147529    -0.32670
C2511       C  0.34625362  0.44399482  0.80470056     0.36580
C2512       C  0.36173393  0.45219545  0.80529064    -0.05590
C2513       C  0.36240628  0.46920442  0.81176663    -0.32560
C2514       C  0.34811503  0.47783079  0.81949462     0.36490
H2515       H  0.32002619  0.44611794  0.81101570     0.16860
O2516       O  0.34519757  0.42740793  0.79788351    -0.60060
H2517       H  0.37425924  0.47563404  0.81318525     0.16870
O2518       O  0.34985638  0.49401406  0.82856738    -0.60160
H2519       H  0.35170218  0.49351171  0.85094149     0.43870
H2520       H  0.34408419  0.42167742  0.81784510     0.43830
C2521       C  0.65237898  0.24557015  0.67631691    -0.05240
C2522       C  0.63530709  0.24358304  0.68143662    -0.32670
C2523       C  0.62582733  0.25665550  0.69242933     0.36580
C2524       C  0.63326110  0.27237287  0.69768684    -0.05590
C2525       C  0.65016734  0.27460233  0.69032027    -0.32560
C2526       C  0.65971044  0.26134156  0.67999915     0.36490
H2527       H  0.62945164  0.23147144  0.67931348     0.16860
O2528       O  0.60957739  0.25346128  0.69965453    -0.60060
H2529       H  0.65623797  0.28652350  0.69342810     0.16870
O2530       O  0.67636844  0.26371837  0.67510201    -0.60160
H2531       H  0.67749649  0.26555631  0.65280007     0.43870
H2532       H  0.60973918  0.24941208  0.72105251     0.43830
C2533       C  0.51837712  0.33770255  0.75569024    -0.05240
C2534       C  0.51530731  0.35390141  0.74562062    -0.32670
C2535       C  0.49952608  0.35840681  0.73578602     0.36580
C2536       C  0.48636846  0.34681393  0.73682676    -0.05590
C2537       C  0.48926887  0.33067080  0.74735673    -0.32560
C2538       C  0.50523959  0.32601096  0.75645299     0.36490
H2539       H  0.52527976  0.36302268  0.74469859     0.16860
O2540       O  0.49696814  0.37430299  0.72577430    -0.60060
H2541       H  0.47921050  0.32164127  0.74810113     0.16870
O2542       O  0.50785371  0.31009361  0.76623952    -0.60160
H2543       H  0.50625323  0.31041924  0.78867752     0.43870
H2544       H  0.50033940  0.37432116  0.70399846     0.43830
C2545       C  0.63239570  0.43255689  0.77978209    -0.05240
C2546       C  0.63222845  0.42182185  0.75463992    -0.32670
C2547       C  0.63120024  0.40462772  0.75887484     0.36580
C2548       C  0.62976008  0.39805000  0.78857083    -0.05590
C2549       C  0.63075777  0.40871456  0.81373725    -0.32240
C2550       C  0.63236011  0.42587511  0.80953122     0.36490
H2551       H  0.63204603  0.42682990  0.73166751     0.16860
O2552       O  0.62986807  0.39450555  0.73384053    -0.60060
H2553       H  0.62948104  0.40378125  0.83666007     0.16870
O2554       O  0.63209285  0.43606587  0.83455319    -0.60160
H2555       H  0.64380449  0.43699966  0.84127034     0.43870
H2556       H  0.64144062  0.39188347  0.72819258     0.43830
C2557       C  0.35781069  0.38772358  0.73834299    -0.05240
C2558       C  0.35267668  0.37278288  0.75238238    -0.32670
C2559       C  0.33926083  0.36354283  0.74098323     0.36580
C2560       C  0.33052181  0.36924480  0.71531596    -0.05590
C2561       C  0.33394066  0.38526340  0.70436098    -0.32560
C2562       C  0.34734657  0.39455737  0.71568190     0.36490
H2563       H  0.35959456  0.36765397  0.77123948     0.16860
O2564       O  0.33522613  0.34868182  0.75450021    -0.60060
H2565       H  0.32688990  0.39031206  0.68556358     0.16870
O2566       O  0.35014137  0.41006957  0.70376069    -0.60160
H2567       H  0.35386688  0.40825918  0.68243928     0.43870
H2568       H  0.32603429  0.35119886  0.76871549     0.43830
C2569       C  0.42102362  0.41496214  0.56217424    -0.05240
C2570       C  0.40576379  0.41610659  0.54701866    -0.32670
C2571       C  0.40516360  0.42101017  0.51626705     0.36580
C2572       C  0.41993632  0.42535024  0.00081675    -0.05590
C2573       C  0.43508754  0.42457828  0.51644160    -0.32560
C2574       C  0.43570691  0.41932377  0.54675096     0.36490
H2575       H  0.39437350  0.41284730  0.55882129     0.16860
O2576       O  0.39010739  0.42208894  0.00190205    -0.60060
H2577       H  0.44658394  0.42776939  0.50494519     0.16870
O2578       O  0.45076230  0.41854178  0.56119391    -0.60160
H2579       H  0.45209678  0.42933966  0.57178798     0.43870
H2580       H  0.38688188  0.41049338  0.49690776     0.43830
C2581       C  0.49280704  0.48086450  0.82119075    -0.05240
C2582       C  0.49874698  0.49595988  0.83300164    -0.32670
C2583       C  0.51500401  0.50146540  0.82711995     0.36580
C2584       C  0.52594841  0.49146846  0.81015044    -0.05590
C2585       C  0.51974965  0.47642693  0.79802762    -0.32560
C2586       C  0.50334757  0.47122314  0.80314294     0.36490
H2587       H  0.49068972  0.50357576  0.84675301     0.16860
O2588       O  0.51993139  0.51663990  0.83814088    -0.60060
H2589       H  0.52767920  0.46831183  0.78514003     0.16870
O2590       O  0.49810074  0.45611816  0.79217216    -0.60160
H2591       H  0.49490727  0.45819752  0.77065550     0.43870
H2592       H  0.51791343  0.52454498  0.82121042     0.43830
C2593       C  0.73132951  0.59120415  0.91298402    -0.05240
C2594       C  0.72312003  0.57591558  0.91689945    -0.32670
C2595       C  0.73204739  0.56140161  0.92250037     0.36580
C2596       C  0.74953666  0.56209585  0.92451867    -0.05590
C2597       C  0.75769924  0.57717246  0.91790879    -0.32560
C2598       C  0.74881556  0.59161816  0.91240904     0.36490
H2599       H  0.70968958  0.57535436  0.91701960     0.16860
O2600       O  0.72354652  0.54666433  0.92591625    -0.60060
H2601       H  0.77106497  0.57818240  0.91903064     0.16870
O2602       O  0.75745789  0.60626443  0.90895420    -0.60160
H2603       H  0.75913897  0.61054433  0.92996311     0.43870
H2604       H  0.71724411  0.54770533  0.94525413     0.43830
C2605       C  0.55035670  0.87080142  0.80432897    -0.05240
C2606       C  0.54521576  0.88283315  0.82512883    -0.32670
C2607       C  0.52948375  0.88976969  0.82303946     0.36580
C2608       C  0.51861511  0.88513432  0.79899139    -0.05590
C2609       C  0.52427329  0.87375672  0.77709786    -0.32560
C2610       C  0.53993385  0.86653716  0.77975714     0.36490
H2611       H  0.55304992  0.88617801  0.84431310     0.16860
O2612       O  0.52470092  0.90029012  0.84582258    -0.60060
H2613       H  0.51637489  0.87009025  0.75822681     0.16870
O2614       O  0.54482199  0.85514052  0.75849197    -0.60160
H2615       H  0.55121581  0.86161291  0.74311661     0.43870
H2616       H  0.51983539  0.89302012  0.86187165     0.43830
C2617       C  0.61921075  0.75668806  0.85796730    -0.05240
C2618       C  0.62476802  0.75353168  0.82836248    -0.32670
C2619       C  0.63169986  0.73827951  0.82074206     0.36580
C2620       C  0.63288690  0.72548704  0.84289244    -0.05590
C2621       C  0.62702009  0.72872535  0.87261264    -0.32560
C2622       C  0.62037855  0.74419472  0.88023190     0.36490
H2623       H  0.62430286  0.76321056  0.81118490     0.16860
O2624       O  0.63809359  0.73655579  0.79198100    -0.60060
H2625       H  0.62760490  0.71931871  0.89020091     0.16870
O2626       O  0.61513010  0.74700151  0.90952628    -0.60160
H2627       H  0.60318630  0.74393287  0.90957103     0.43870
H2628       H  0.62834836  0.73493954  0.77844422     0.43830
C2629       C  0.65847143  0.59338986  0.86868338    -0.05240
C2630       C  0.66777442  0.57883197  0.86713014    -0.32670
C2631       C  0.65999747  0.56325094  0.86423212     0.36580
C2632       C  0.64252272  0.56200012  0.86190779    -0.05590
C2633       C  0.63326874  0.57652927  0.86562259    -0.32560
C2634       C  0.64103275  0.59204568  0.86890020     0.36490
H2635       H  0.68119719  0.57958669  0.86729084     0.16860
O2636       O  0.66972474  0.54946787  0.86301604    -0.60060
H2637       H  0.61989013  0.57616146  0.86436179     0.16870
O2638       O  0.63135078  0.60587621  0.87017610    -0.60160
H2639       H  0.62958697  0.60918088  0.84860710     0.43870
H2640       H  0.67032391  0.54539675  0.88435962     0.43830
C2641       C  0.70530202  0.65155971  0.61074830    -0.05240
C2642       C  0.68841140  0.65196569  0.61815087    -0.32670
C2643       C  0.68326330  0.65233871  0.64862130     0.36580
C2644       C  0.69507185  0.65198929  0.67232930    -0.05590
C2645       C  0.71194313  0.65080645  0.66494317    -0.32560
C2646       C  0.71711740  0.65086329  0.63436468     0.36490
H2647       H  0.67917841  0.65242881  0.60021086     0.16860
O2648       O  0.66664081  0.65304400  0.65495008    -0.60060
H2649       H  0.72116519  0.65037344  0.68289889     0.16870
O2650       O  0.73368155  0.64975852  0.62775545    -0.60160
H2651       H  0.73824644  0.66113138  0.63060234     0.43870
H2652       H  0.66300803  0.64134019  0.65773883     0.43830
C2653       C  0.85906173  0.89165358  0.96418393    -0.05240
C2654       C  0.85138850  0.89689814  0.93701238    -0.32670
C2655       C  0.83852152  0.88770025  0.92382088     0.36580
C2656       C  0.83269484  0.87306835  0.93803539    -0.05590
C2657       C  0.83917652  0.86865100  0.96661631    -0.32560
C2658       C  0.85204742  0.87797133  0.97995602     0.36490
H2659       H  0.85602173  0.90744944  0.92427287     0.16860
O2660       O  0.83263965  0.89256252  0.89586278    -0.60060
H2661       H  0.83447599  0.85773870  0.97839367     0.16870
O2662       O  0.85805217  0.87316955  0.50783496    -0.60160
H2663       H  0.85261003  0.88051580  0.02283173     0.43870
H2664       H  0.83977227  0.88697338  0.88068906     0.43830
C2665       C  0.68160203  0.85981361  0.86409379    -0.05240
C2666       C  0.69409884  0.85715512  0.88573181    -0.32670
C2667       C  0.71060672  0.85569836  0.87665965     0.36580
C2668       C  0.71474126  0.85653893  0.84549215    -0.05590
C2669       C  0.70246849  0.86000109  0.82394111    -0.32560
C2670       C  0.68596405  0.86188168  0.83307892     0.36490
H2671       H  0.69093566  0.85546137  0.90959117     0.16860
O2672       O  0.72241643  0.85208718  0.89811107    -0.60060
H2673       H  0.70556701  0.86053801  0.79988477     0.16870
O2674       O  0.67404633  0.86407571  0.81118262    -0.60160
H2675       H  0.67428875  0.87613090  0.80663072     0.43870
H2676       H  0.72678381  0.86300779  0.90500995     0.43830
C2677       C  0.77472261  0.74997463  0.89491401    -0.05240
C2678       C  0.77928166  0.74496183  0.92447485    -0.32670
C2679       C  0.77409274  0.72958122  0.93629615     0.36580
C2680       C  0.76390294  0.71890027  0.91871861    -0.05590
C2681       C  0.76022560  0.72350107  0.88852898    -0.32560
C2682       C  0.76553843  0.73879268  0.87659520     0.36490
H2683       H  0.78651939  0.75315165  0.93897106     0.16860
O2684       O  0.77902453  0.72525413  0.96514206    -0.60060
H2685       H  0.75275162  0.71548598  0.87412523     0.16870
O2686       O  0.76199280  0.74248081  0.84672317    -0.60160
H2687       H  0.74981735  0.74400274  0.84594562     0.43870
H2688       H  0.78915998  0.71861493  0.96221421     0.43830
loop_ 
_geom_bond_atom_site_label_1 
_geom_bond_atom_site_label_2 
_geom_bond_distance 
_geom_bond_site_symmetry_2 
_ccdc_geom_bond_type 
N1            N2   1.322       .  A
N1            C5   1.347       .  A
N1           Cu9   2.083       .  S
N2            C3   1.342       .  A
N2           Cu8   2.072       .  S
C3            C4   1.387       .  A
C3            H6   1.080       .  S
C4            C5   1.390       .  A
C4         C1333   1.489       .  S
C5            H7   1.081       .  S
Cu8          N11   2.070       .  S
Cu9          N19   2.083       .  S
Cu10         N12   2.053       .  S
Cu10         N18   2.055       .  S
N11          N12   1.319       .  A
N11          C15   1.343       .  A
N12          C13   1.343       .  A
C13          C14   1.381       .  A
C13          H16   1.082       .  S
C14          C15   1.384       .  A
C14        C1324   1.467       .  S
C15          H17   1.082       .  S
N18          N19   1.322       .  A
N18          C22   1.340       .  A
N19          C20   1.347       .  A
C20          C21   1.388       .  A
C20          H23   1.082       .  S
C21          C22   1.382       .  A
C21        C1312   1.480       .  S
C22          H24   1.081       .  S
N25          N26   1.321       .  A
N25          C29   1.343       .  A
N25         Cu33   2.067       .  S
N26          C27   1.343       .  A
N26         Cu32   2.070       .  S
C27          C28   1.385       .  A
C27          H30   1.082       .  S
C28          C29   1.386       .  A
C28        C1249   1.480       .  S
C29          H31   1.082       .  S
Cu32       N1379   2.071       .  S
Cu33         N43   2.069       .  S
Cu34         N42   2.081       .  S
Cu34       N1380   2.081       .  S
N35          N36   1.323       .  A
N35          C39   1.344       .  A
N35       Cu1376   2.071   1_554  S
N36          C37   1.346       .  A
N36       Cu1378   2.081       .  S
C37          C38   1.384       .  A
C37          H40   1.082       .  S
C38          C39   1.382       .  A
C38        C1297   1.476       .  S
C39          H41   1.082       .  S
N42          N43   1.321       .  A
N42          C46   1.346       .  A
N43          C44   1.343       .  A
C44          C45   1.388       .  A
C44          H47   1.081       .  S
C45          C46   1.390       .  A
C45        C1336   1.490       .  S
C46          H48   1.081       .  S
N49          N50   1.323       .  A
N49          C53   1.346       .  A
N49         Cu57   2.085       .  S
N50          C51   1.346       .  A
N50         Cu56   2.072       .  S
C51          C52   1.382       .  A
C51          H54   1.082       .  S
C52          C53   1.386       .  A
C52        C1273   1.476       .  S
C53          H55   1.082       .  S
Cu56         N59   2.071       .  S
Cu57         N67   2.085       .  S
Cu58         N60   2.064       .  S
Cu58         N66   2.066       .  S
N59          N60   1.321       .  A
N59          C63   1.342       .  A
N60          C61   1.345       .  A
C61          C62   1.384       .  A
C61          H64   1.082       .  S
C62          C63   1.384       .  A
C62        C1321   1.476       .  S
C63          H65   1.082       .  S
N66          N67   1.322       .  A
N66          C70   1.343       .  A
N67          C68   1.347       .  A
C68          C69   1.386       .  A
C68          H71   1.082       .  S
C69          C70   1.383       .  A
C69        C1261   1.477       .  S
C70          H72   1.082       .  S
N73          N74   1.324       .  A
N73          C77   1.347       .  A
N73         Cu81   2.089       .  S
N74          C75   1.343       .  A
N74         Cu80   2.075       .  S
C75          C76   1.383       .  A
C75          H78   1.082       .  S
C76          C77   1.389       .  A
C76        C1285   1.485       .  S
C77          H79   1.081       .  S
Cu80         N83   2.075       .  S
Cu81         N91   2.088       .  S
Cu82         N84   2.064       .  S
Cu82         N90   2.064       .  S
N83          N84   1.320       .  A
N83          C87   1.348       .  A
N84          C85   1.342       .  A
C85          C86   1.383       .  A
C85          H88   1.082       .  S
C86          C87   1.387       .  A
C86        C1300   1.478       .  S
C87          H89   1.082       .  S
N90          N91   1.319       .  A
N90          C94   1.340       .  A
N91          C92   1.349       .  A
C92          C93   1.397       .  A
C92          H95   1.081       .  S
C93          C94   1.390       .  A
C93        C1276   1.500       .  S
C94          H96   1.077       .  S
N97          N98   1.322       .  A
N97         C101   1.348       .  A
N97        Cu105   2.086       .  S
N98          C99   1.344       .  A
N98        Cu104   2.067       .  S
C99         C100   1.381       .  A
C99         H102   1.082       .  S
C100        C101   1.387       .  A
C100       C1237   1.478       .  S
C101        H103   1.082       .  S
Cu104       N107   2.067       .  S
Cu105       N115   2.086       .  S
Cu106       N108   2.069       .  S
Cu106       N114   2.065       .  S
N107        N108   1.321       .  A
N107        C111   1.341       .  A
N108        C109   1.346       .  A
C109        C110   1.385       .  A
C109        H112   1.082       .  S
C110        C111   1.383       .  A
C110       C1228   1.477       .  S
C111        H113   1.082       .  S
N114        N115   1.322       .  A
N114        C118   1.342       .  A
N115        C116   1.346       .  A
C116        C117   1.389       .  A
C116        H119   1.082       .  S
C117        C118   1.382       .  A
C117       C1168   1.477       .  S
C118        H120   1.082       .  S
N121        N122   1.320       .  A
N121        C125   1.347       .  A
N121       Cu129   2.087       .  S
N122        C123   1.343       .  A
N122       Cu128   2.071       .  S
C123        C124   1.389       .  A
C123        H126   1.081       .  S
C124        C125   1.394       .  A
C124       C1240   1.497       .  S
C125        H127   1.080       .  S
Cu128       N131   2.070       .  S
Cu129       N139   2.088       .  S
Cu130       N132   2.072       .  S
Cu130       N138   2.073       .  S
N131        N132   1.321       .  A
N131        C135   1.342       .  A
N132        C133   1.346       .  A
C133        C134   1.385       .  A
C133        H136   1.082       .  S
C134        C135   1.382       .  A
C134       C1201   1.473       .  S
C135        H137   1.082       .  S
N138        N139   1.321       .  A
N138        C142   1.345       .  A
N139        C140   1.345       .  A
C140        C141   1.393       .  A
C140        H143   1.081       .  S
C141        C142   1.391       .  A
C141       C1288   1.496       .  S
C142        H144   1.080       .  S
N145        N146   1.322       .  A
N145        C149   1.347       .  A
N145       Cu153   2.079       .  S
N146        C147   1.343       .  A
N146       Cu152   2.072       .  S
C147        C148   1.383       .  A
C147        H150   1.082       .  S
C148        C149   1.385       .  A
C148       C1189   1.477       .  S
C149        H151   1.082       .  S
Cu152       N155   2.071       .  S
Cu153       N163   2.080       .  S
Cu154       N156   2.068       .  S
Cu154       N162   2.068       .  S
N155        N156   1.321       .  A
N155        C159   1.343       .  A
N156        C157   1.346       .  A
C157        C158   1.383       .  A
C157        H160   1.082       .  S
C158        C159   1.382       .  A
C158       C1204   1.471       .  S
C159        H161   1.082       .  S
N162        N163   1.321       .  A
N162        C166   1.343       .  A
N163        C164   1.344       .  A
C164        C165   1.392       .  A
C164        H167   1.079       .  S
C165        C166   1.388       .  A
C165       C1180   1.493       .  S
C166        H168   1.081       .  S
N169        N170   1.322       .  A
N169        C173   1.348       .  A
N169       Cu177   2.081       .  S
N170        C171   1.342       .  A
N170       Cu176   2.064       .  S
C171        C172   1.381       .  A
C171        H174   1.082       .  S
C172        C173   1.385       .  A
C172       C1192   1.472       .  S
C173        H175   1.082       .  S
Cu176       N179   2.064       .  S
Cu177       N187   2.081       .  S
Cu178       N180   2.066       .  S
Cu178       N186   2.059       .  S
N179        N180   1.321       .  A
N179        C183   1.342       .  A
N180        C181   1.346       .  A
C181        C182   1.382       .  A
C181        H184   1.082       .  S
C182        C183   1.381       .  A
C182       C1225   1.469       .  S
C183        H185   1.082       .  S
N186        N187   1.319       .  A
N186        C190   1.339       .  A
N187        C188   1.343       .  A
C188        C189   1.395       .  A
C188        H191   1.081       .  S
C189        C190   1.390       .  A
C189       C1213   1.498       .  S
C190        H192   1.076       .  S
N193        N194   1.321       .  A
N193        C197   1.344       .  A
N193       Cu201   2.072       .  S
N194        C195   1.343       .  A
N194       Cu200   2.069       .  S
C195        C196   1.384       .  A
C195        H198   1.082       .  S
C196        C197   1.387       .  A
C196       C1177   1.478       .  S
C197        H199   1.082       .  S
Cu200       N203   2.072       .  S
Cu201       N211   2.073       .  S
Cu202       N204   2.076       .  S
Cu202       N210   2.075       .  S
N203        N204   1.322       .  A
N203        C207   1.345       .  A
N204        C205   1.345       .  A
C205        C206   1.384       .  A
C205        H208   1.082       .  S
C206        C207   1.385       .  A
C206       C1141   1.479       .  S
C207        H209   1.082       .  S
N210        N211   1.319       .  A
N210        C214   1.344       .  A
N211        C212   1.344       .  A
C212        C213   1.392       .  A
C212        H215   1.081       .  S
C213        C214   1.392       .  A
C213       C1156   1.497       .  S
C214        H216   1.078       .  S
N217        N218   1.322       .  A
N217        C221   1.346       .  A
N217       Cu225   2.080       .  S
N218        C219   1.344       .  A
N218       Cu224   2.073       .  S
C219        C220   1.383       .  A
C219        H222   1.082       .  S
C220        C221   1.385       .  A
C220       C1153   1.477       .  S
C221        H223   1.082       .  S
Cu224       N227   2.073       .  S
Cu225       N235   2.080   1_545  S
Cu226       N228   2.058       .  S
Cu226       N234   2.060       .  S
N227        N228   1.320   1_545  A
N227        C231   1.343       .  A
N228        C229   1.343       .  A
C229        C230   1.386       .  A
C229        H232   1.080       .  S
C230        C231   1.388   1_565  A
C230       C1117   1.485       .  S
C231        H233   1.082       .  S
N234        N235   1.322       .  A
N234        C238   1.342       .  A
N235        C236   1.345       .  A
C236        C237   1.386       .  A
C236        H239   1.082   1_565  S
C237        C238   1.383       .  A
C237       C1108   1.479       .  S
C238        H240   1.081       .  S
N241        N242   1.319       .  A
N241        C245   1.344       .  A
N241       Cu249   2.072       .  S
N242        C243   1.345       .  A
N242       Cu248   2.068       .  S
C243        C244   1.389       .  A
C243        H246   1.081       .  S
C244        C245   1.389       .  A
C244       C1093   1.488       .  S
C245        H247   1.081       .  S
Cu248       N251   2.066   1_545  S
Cu249       N259   2.072   1_545  S
Cu250       N252   2.079       .  S
Cu250       N258   2.079       .  S
N251        N252   1.323       .  A
N251        C255   1.341       .  A
N252        C253   1.347       .  A
C253        C254   1.384       .  A
C253        H256   1.082       .  S
C254        C255   1.380       .  A
C254       C1120   1.469       .  S
C255        H257   1.082   1_565  S
N258        N259   1.320       .  A
N258        C262   1.347       .  A
N259        C260   1.341       .  A
C260        C261   1.389       .  A
C260        H263   1.079   1_565  S
C261        C262   1.392       .  A
C261       C1081   1.494       .  S
C262        H264   1.081       .  S
N265        N266   1.321       .  A
N265        C269   1.346       .  A
N265       Cu273   2.087       .  S
N266        C267   1.342       .  A
N266       Cu272   2.075       .  S
C267        C268   1.392       .  A
C267        H270   1.080       .  S
C268        C269   1.395       .  A
C268       C1129   1.500       .  S
C269        H271   1.079       .  S
Cu272       N275   2.076       .  S
Cu273       N283   2.085       .  S
Cu274       N276   2.067       .  S
Cu274       N282   2.067       .  S
N275        N276   1.321       .  A
N275       C1623   1.347   1_554  A
N276       C1621   1.343   1_554  A
C277       N1620   1.343       .  A
C277        C278   1.383       .  A
C277        H280   1.082       .  S
C278        C279   1.386       .  A
C278       C1144   1.478       .  S
C279       N1619   1.347       .  A
C279        H281   1.082       .  S
N282        N283   1.321       .  A
N282        C286   1.342       .  A
N283        C284   1.349       .  A
C284        C285   1.390       .  A
C284        H287   1.082       .  S
C285        C286   1.385       .  A
C285       C1096   1.486       .  S
C286        H288   1.081       .  S
N289        N290   1.323   1_545  A
N289        C293   1.346       .  A
N289       Cu297   2.078       .  S
N290        C291   1.344       .  A
N290       Cu296   2.073       .  S
C291        C292   1.381   1_565  A
C291        H294   1.082       .  S
C292        C293   1.383       .  A
C292       C1069   1.470   1_545  S
C293        H295   1.082       .  S
Cu296       N299   2.073       .  S
Cu297       N307   2.078       .  S
Cu298       N300   2.053   1_545  S
Cu298       N306   2.055       .  S
N299        N300   1.320       .  A
N299        C303   1.343       .  A
N300        C301   1.344       .  A
C301        C302   1.380       .  A
C301        H304   1.082       .  S
C302        C303   1.384       .  A
C302       C1057   1.466       .  S
C303        H305   1.082       .  S
N306        N307   1.321       .  A
N306        C310   1.341       .  A
N307        C308   1.345       .  A
C308        C309   1.386       .  A
C308        H311   1.082       .  S
C309        C310   1.382       .  A
C309       C1045   1.477       .  S
C310        H312   1.081       .  S
N313        N314   1.321       .  A
N313        C317   1.343       .  A
N313       Cu321   2.074       .  S
N314        C315   1.341       .  A
N314       Cu320   2.068       .  S
C315        C316   1.388       .  A
C315        H318   1.081       .  S
C316        C317   1.389       .  A
C316       C1105   1.488       .  S
C317        H319   1.081       .  S
Cu320       N323   2.073       .  S
Cu321       N331   2.074       .  S
Cu322       N324   2.068       .  S
Cu322       N330   2.068       .  S
N323        N324   1.322       .  A
N323        C327   1.346       .  A
N324        C325   1.343       .  A
C325        C326   1.383       .  A
C325        H328   1.082       .  S
C326        C327   1.386       .  A
C326       C1033   1.478       .  S
C327        H329   1.082       .  S
N330        N331   1.320       .  A
N330        C334   1.343       .  A
N331        C332   1.346       .  A
C332        C333   1.388       .  A
C332        H335   1.082       .  S
C333        C334   1.385       .  A
C333       C1072   1.483       .  S
C334        H336   1.082       .  S
N337        N338   1.321       .  A
N337        C341   1.349       .  A
N337       Cu345   2.088       .  S
N338        C339   1.342       .  A
N338       Cu344   2.067       .  S
C339        C340   1.384       .  A
C339        H342   1.082       .  S
C340        C341   1.391       .  A
C340       C1021   1.487       .  S
C341        H343   1.081       .  S
Cu344       N347   2.067       .  S
Cu345       N355   2.088       .  S
Cu346       N348   2.070       .  S
Cu346       N354   2.066       .  S
N347        N348   1.320       .  A
N347        C351   1.343       .  A
N348        C349   1.346       .  A
C349        C350   1.386       .  A
C349        H352   1.081       .  S
C350        C351   1.384       .  A
C350       C1036   1.480       .  S
C351        H353   1.082       .  S
N354        N355   1.322       .  A
N354        C358   1.341       .  A
N355        C356   1.347       .  A
C356        C357   1.392       .  A
C356        H359   1.082       .  S
C357        C358   1.387       .  A
C357       C1264   1.493       .  S
C358        H360   1.079       .  S
N361        N362   1.320       .  A
N361        C365   1.346       .  A
N361       Cu369   2.082       .  S
N362        C363   1.344       .  A
N362       Cu368   2.068       .  S
C363        C364   1.386       .  A
C363        H366   1.082       .  S
C364        C365   1.391       .  A
C364       C1024   1.489       .  S
C365        H367   1.081       .  S
Cu368       N371   2.067       .  S
Cu369       N379   2.083       .  S
Cu370       N372   2.068       .  S
Cu370       N378   2.070       .  S
N371        N372   1.321       .  A
N371        C375   1.340       .  A
N372        C373   1.345       .  A
C373        C374   1.387       .  A
C373        H376   1.081       .  S
C374        C375   1.385       .  A
C374       C1060   1.481       .  S
C375        H377   1.082       .  S
N378        N379   1.321       .  A
N378        C382   1.345       .  A
N379        C380   1.343       .  A
C380        C381   1.390       .  A
C380        H383   1.081       .  S
C381        C382   1.389       .  A
C381       C1009   1.492       .  S
C382        H384   1.080       .  S
N385        N386   1.321       .  A
N385        C389   1.346       .  A
N385       Cu393   2.083       .  S
N386        C387   1.340       .  A
N386       Cu392   2.066       .  S
C387        C388   1.387       .  A
C387        H390   1.082       .  S
C388        C389   1.393       .  A
C388       C1012   1.493       .  S
C389        H391   1.079       .  S
Cu392       N395   2.067       .  S
Cu393       N403   2.084       .  S
Cu394       N396   2.072       .  S
Cu394       N402   2.072       .  S
N395        N396   1.321       .  A
N395        C399   1.345       .  A
N396        C397   1.344       .  A
C397        C398   1.384       .  A
C397        H400   1.082       .  S
C398        C399   1.385       .  A
C398        C985   1.478       .  S
C399        H401   1.082       .  S
N402        N403   1.322       .  A
N402        C406   1.343       .  A
N403        C404   1.348       .  A
C404        C405   1.389       .  A
C404        H407   1.082       .  S
C405        C406   1.386       .  A
C405        C997   1.487       .  S
C406        H408   1.081       .  S
N409        N410   1.320       .  A
N409        C413   1.345       .  A
N409       Cu417   2.078       .  S
N410        C411   1.344       .  A
N410       Cu416   2.068       .  S
C411        C412   1.388       .  A
C411        H414   1.081       .  S
C412        C413   1.390       .  A
C412       C1000   1.489       .  S
C413        H415   1.081       .  S
Cu416       N419   2.066       .  S
Cu417       N427   2.078       .  S
Cu418       N420   2.073       .  S
Cu418       N426   2.074       .  S
N419        N420   1.322       .  A
N419        C423   1.341       .  A
N420        C421   1.346       .  A
C421        C422   1.387       .  A
C421        H424   1.081       .  S
C422        C423   1.383       .  A
C422        C961   1.478       .  S
C423        H425   1.082       .  S
N426        N427   1.321       .  A
N426        C430   1.345       .  A
N427        C428   1.343       .  A
C428        C429   1.390       .  A
C428        H431   1.080       .  S
C429        C430   1.389       .  A
C429       C1165   1.491       .  S
C430        H432   1.082       .  S
N433        N434   1.321       .  A
N433        C437   1.342       .  A
N433       Cu441   2.071       .  S
N434        C435   1.343       .  A
N434       Cu440   2.069       .  S
C435        C436   1.385       .  A
C435        H438   1.082       .  S
C436        C437   1.387       .  A
C436        C973   1.479       .  S
C437        H439   1.082       .  S
Cu440      N1787   2.071       .  S
Cu441       N451   2.073       .  S
Cu442       N450   2.074       .  S
Cu442      N1788   2.074       .  S
N443        N444   1.322       .  A
N443        C447   1.346       .  A
N443      Cu1784   2.071   1_554  S
N444        C445   1.344       .  A
N444      Cu1786   2.074       .  S
C445        C446   1.383       .  A
C445        H448   1.082       .  S
C446        C447   1.385       .  A
C446        C988   1.478       .  S
C447        H449   1.082       .  S
N450        N451   1.322       .  A
N450        C454   1.345       .  A
N451        C452   1.345       .  A
C452        C453   1.382       .  A
C452        H455   1.082       .  S
C453        C454   1.383       .  A
C453        C949   1.470       .  S
C454        H456   1.082       .  S
N457        N458   1.322       .  A
N457        C461   1.348       .  A
N457       Cu465   2.078       .  S
N458        C459   1.342       .  A
N458       Cu464   2.072       .  S
C459        C460   1.383       .  A
C459        H462   1.082       .  S
C460        C461   1.385       .  A
C460        C952   1.478       .  S
C461        H463   1.082       .  S
Cu464       N467   2.072       .  S
Cu465       N475   2.079       .  S
Cu466       N468   2.053       .  S
Cu466       N474   2.055       .  S
N467        N468   1.320       .  A
N467        C471   1.343       .  A
N468        C469   1.343       .  A
C469        C470   1.380       .  A
C469        H472   1.082       .  S
C470        C471   1.384       .  A
C470        C964   1.467       .  S
C471        H473   1.082       .  S
N474        N475   1.320       .  A
N474        C478   1.341       .  A
N475        C476   1.344       .  A
C476        C477   1.392       .  A
C476        H479   1.079       .  S
C477        C478   1.386       .  A
C477        C940   1.489       .  S
C478        H480   1.081       .  S
N481        N482   1.320   1_545  A
N481        C485   1.348       .  A
N481       Cu489   2.085       .  S
N482        C483   1.342       .  A
N482       Cu488   2.066       .  S
C483        C484   1.387   1_565  A
C483        H486   1.081       .  S
C484        C485   1.392       .  A
C484        C928   1.490   1_545  S
C485        H487   1.081       .  S
Cu488       N491   2.066       .  S
Cu489       N499   2.086       .  S
Cu490       N492   2.069       .  S
Cu490       N498   2.071   1_565  S
N491        N492   1.320       .  A
N491        C495   1.342   1_554  A
N492        C493   1.345       .  A
C493        C494   1.387       .  A
C493        H496   1.082       .  S
C494        C495   1.385   1_554  A
C494        C913   1.480       .  S
C495       H1841   1.081       .  S
H497       C1839   1.081       .  S
N498        N499   1.322       .  A
N498        C502   1.345       .  A
N499        C500   1.344       .  A
C500        C501   1.389       .  A
C500        H503   1.081       .  S
C501        C502   1.387       .  A
C501        C901   1.487       .  S
C502        H504   1.081       .  S
N505        N506   1.322       .  A
N505        C509   1.347       .  A
N505       Cu513   2.085       .  S
N506        C507   1.345       .  A
N506       Cu512   2.068       .  S
C507        C508   1.381       .  A
C507        H510   1.082       .  S
C508        C509   1.386       .  A
C508        C925   1.475       .  S
C509        H511   1.082       .  S
Cu512       N515   2.069       .  S
Cu513       N523   2.085       .  S
Cu514       N516   2.068       .  S
Cu514       N522   2.064       .  S
N515        N516   1.321       .  A
N515        C519   1.342       .  A
N516        C517   1.346       .  A
C517        C518   1.385       .  A
C517        H520   1.081       .  S
C518        C519   1.384       .  A
C518        C889   1.478       .  S
C519        H521   1.082       .  S
N522        N523   1.322       .  A
N522        C526   1.343       .  A
N523        C524   1.345       .  A
C524        C525   1.389       .  A
C524       H1871   1.082       .  S
C525        C526   1.382       .  A
C525       C1084   1.478       .  S
C526        H528   1.082       .  S
H527       C1868   1.082       .  S
N529        N530   1.320       .  A
N529        C533   1.343       .  A
N529       Cu537   2.075       .  S
N530        C531   1.340       .  A
N530       Cu536   2.063       .  S
C531        C532   1.389       .  A
C531        H534   1.080       .  S
C532        C533   1.391       .  A
C532       C1309   1.492       .  S
C533       H1879   1.081       .  S
H535       C1877   1.081       .  S
Cu536       N539   2.072       .  S
Cu537       N547   2.075       .  S
Cu538       N540   2.067       .  S
Cu538       N546   2.067       .  S
N539        N540   1.322       .  A
N539        C543   1.346       .  A
N540        C541   1.343       .  A
C541        C542   1.380       .  A
C541        H544   1.082       .  S
C542        C543   1.382       .  A
C542        C892   1.468       .  S
C543        H545   1.082       .  S
N546        N547   1.318       .  A
N546        C550   1.341       .  A
N547        C548   1.345       .  A
C548        C549   1.395       .  A
C548        H551   1.079       .  S
C549        C550   1.391       .  A
C549        C877   1.498       .  S
C550        H552   1.080       .  S
N553       N1898   1.321       .  A
N553        C557   1.344       .  A
N553       Cu561   2.071       .  S
N554       N1897   1.321   1_554  A
N554        C555   1.346       .  A
N554       Cu560   2.074       .  S
C555       C1900   1.384   1_554  A
C555        H558   1.082       .  S
C556        C557   1.384       .  A
C556       C1899   1.384       .  A
C556        C880   1.477       .  S
C557        H559   1.082       .  S
Cu560       N563   2.074       .  S
Cu561       N571   2.071       .  S
Cu562       N564   2.067       .  S
Cu562      N1914   2.067   1_554  S
N563        N564   1.322       .  A
N563        C567   1.343       .  A
N564        C565   1.345       .  A
C565        C566   1.381       .  A
C565        H568   1.082       .  S
C566        C567   1.382       .  A
C566        C916   1.467       .  S
C567        H569   1.082       .  S
N570        N571   1.320       .  A
N570        C574   1.344       .  A
N570      Cu1906   2.067       .  S
N571        C572   1.342       .  A
C572        C573   1.389       .  A
C572        H575   1.080       .  S
C573        C574   1.388       .  A
C573        C976   1.488       .  S
C574        H576   1.082       .  S
N577        N578   1.323       .  A
N577        C581   1.347       .  A
N577       Cu585   2.076       .  S
N578        C579   1.343       .  A
N578       Cu584   2.074       .  S
C579        C580   1.382       .  A
C579        H582   1.082       .  S
C580        C581   1.383       .  A
C580        C868   1.472       .  S
C581        H583   1.082       .  S
Cu584       N587   2.073       .  S
Cu585       N595   2.077       .  S
Cu586       N588   2.056       .  S
Cu586       N594   2.057       .  S
N587        N588   1.321       .  A
N587        C591   1.344       .  A
N588        C589   1.343       .  A
C589        C590   1.381       .  A
C589        H592   1.082       .  S
C590        C591   1.384       .  A
C590        C853   1.470       .  S
C591        H593   1.082       .  S
N594        N595   1.321       .  A
N594        C598   1.342       .  A
N595        C596   1.344       .  A
C596        C597   1.388       .  A
C596        H599   1.081       .  S
C597        C598   1.384       .  A
C597       C1216   1.481       .  S
C598        H600   1.082       .  S
N601        N602   1.321       .  A
N601        C605   1.343       .  A
N601       Cu609   2.075       .  S
N602        C603   1.341       .  A
N602       Cu608   2.066       .  S
C603        C604   1.388       .  A
C603        H606   1.081       .  S
C604        C605   1.389       .  A
C604       C1048   1.488       .  S
C605        H607   1.081       .  S
Cu608       N611   2.072       .  S
Cu609       N619   2.074       .  S
Cu610       N612   2.064       .  S
Cu610       N618   2.064       .  S
N611        N612   1.321       .  A
N611        C615   1.346       .  A
N612        C613   1.342       .  A
C613        C614   1.383       .  A
C613        H616   1.082       .  S
C614        C615   1.387       .  A
C614        C841   1.479       .  S
C615        H617   1.081       .  S
N618        N619   1.321       .  A
N618        C622   1.342       .  A
N619        C620   1.347       .  A
C620        C621   1.385       .  A
C620        H623   1.082       .  S
C621        C622   1.382       .  A
C621        C865   1.473       .  S
C622        H624   1.082       .  S
N625        N626   1.322       .  A
N625        C629   1.348       .  A
N625       Cu633   2.087       .  S
N626        C627   1.343       .  A
N626       Cu632   2.070       .  S
C627        C628   1.385       .  A
C627        H630   1.081       .  S
C628        C629   1.390       .  A
C628        C829   1.487       .  S
C629        H631   1.082       .  S
Cu632       N635   2.069   1_554  S
Cu633       N643   2.087       .  S
Cu634       N636   2.062       .  S
Cu634       N642   2.061       .  S
N635        N636   1.320   1_556  A
N635       C1983   1.343       .  A
N636       C1981   1.345   1_554  A
C637       N1980   1.345       .  A
C637        C638   1.385       .  A
C637        H640   1.081       .  S
C638        C639   1.385       .  A
C638        C844   1.478       .  S
C639       N1979   1.343       .  A
C639        H641   1.082       .  S
N642        N643   1.320       .  A
N642        C646   1.340       .  A
N643        C644   1.345       .  A
C644        C645   1.396       .  A
C644        H647   1.080       .  S
C645        C646   1.389       .  A
C645        C904   1.497       .  S
C646        H648   1.078       .  S
N649        N650   1.321       .  A
N649        C653   1.346       .  A
N649       Cu657   2.083       .  S
N650        C651   1.344       .  A
N650       Cu656   2.070       .  S
C651        C652   1.387       .  A
C651        H654   1.081       .  S
C652        C653   1.390       .  A
C652        C832   1.490       .  S
C653        H655   1.081       .  S
Cu656       N659   2.069       .  S
Cu657       N667   2.083       .  S
Cu658       N660   2.068       .  S
Cu658       N666   2.069       .  S
N659        N660   1.322       .  A
N659        C663   1.342       .  A
N660        C661   1.345       .  A
C661        C662   1.383       .  A
C661        H664   1.082       .  S
C662        C663   1.382       .  A
C662        C856   1.470       .  S
C663        H665   1.082       .  S
N666        N667   1.320       .  A
N666        C670   1.344       .  A
N667        C668   1.344       .  A
C668        C669   1.392       .  A
C668        H671   1.081       .  S
C669        C670   1.391       .  A
C669        C817   1.496       .  S
C670        H672   1.079       .  S
N673        N674   1.322       .  A
N673        C677   1.349       .  A
N673       Cu681   2.091       .  S
N674        C675   1.343       .  A
N674       Cu680   2.064       .  S
C675        C676   1.381       .  A
C675        H678   1.082       .  S
C676        C677   1.389       .  A
C676        C805   1.479       .  S
C677        H679   1.082       .  S
Cu680       N683   2.064       .  S
Cu681       N691   2.091       .  S
Cu682       N684   2.063       .  S
Cu682       N690   2.060       .  S
N683        N684   1.320       .  A
N683        C687   1.341       .  A
N684        C685   1.345       .  A
C685        C686   1.383       .  A
C685        H688   1.082       .  S
C686        C687   1.382       .  A
C686        C796   1.472       .  S
C687        H689   1.082       .  S
N690        N691   1.321       .  A
N690        C694   1.339       .  A
N691        C692   1.348       .  A
C692        C693   1.393   1_655  A
C692       H2039   1.080       .  S
C693        C694   1.384   1_455  A
C693        C820   1.489       .  S
C694        H696   1.082   1_655  S
H695       C2036   1.080       .  S
N697        N698   1.319       .  A
N697        C701   1.348       .  A
N697       Cu705   2.087       .  S
N698        C699   1.342       .  A
N698       Cu704   2.063       .  S
C699        C700   1.388       .  A
C699        H702   1.079       .  S
C700        C701   1.394       .  A
C700        C808   1.495       .  S
C701        H703   1.081       .  S
Cu704       N707   2.061       .  S
Cu705       N715   2.089       .  S
Cu706       N708   2.076       .  S
Cu706       N714   2.078       .  S
N707        N708   1.318       .  A
N707        C711   1.338       .  A
N708        C709   1.347       .  A
C709        C710   1.396       .  A
C709        H712   1.079       .  S
C710        C711   1.391       .  A
C710        C784   1.498       .  S
C711        H713   1.079       .  S
N714        N715   1.323       .  A
N714        C718   1.345       .  A
N715        C716   1.346       .  A
C716        C717   1.387       .  A
C716        H719   1.082       .  S
C717        C718   1.387       .  A
C717       C1132   1.486       .  S
C718        H720   1.081       .  S
N721        N722   1.320       .  A
N721        C725   1.347       .  A
N721       Cu729   2.084       .  S
N722        C723   1.341       .  A
N722       Cu728   2.065       .  S
C723        C724   1.387       .  A
C723        H726   1.081       .  S
C724        C725   1.394       .  A
C724        C769   1.494       .  S
C725       H2071   1.080       .  S
H727       C2069   1.080   1_554  S
Cu728       N731   2.064       .  S
Cu729       N739   2.083       .  S
Cu730       N732   2.061       .  S
Cu730       N738   2.055       .  S
N731        N732   1.320       .  A
N731        C735   1.342       .  A
N732        C733   1.345       .  A
C733        C734   1.382       .  A
C733        H736   1.082       .  S
C734        C735   1.382       .  A
C734        C793   1.470       .  S
C735        H737   1.082       .  S
N738        N739   1.320       .  A
N738        C742   1.338   1_655  A
N739       C2084   1.344       .  A
C740       N2083   1.344       .  A
C740       C2085   1.396   1_655  A
C740        H743   1.080   1_556  S
C741        C742   1.388       .  A
C741       C2084   1.396   1_455  A
C741        C937   1.495       .  S
C742        H744   1.078       .  S
N745        N746   1.321       .  A
N745        C749   1.348       .  A
N745       Cu753   2.085       .  S
N746        C747   1.342       .  A
N746      Cu2096   2.067       .  S
C747        C748   1.386       .  A
C747        H750   1.082       .  S
C748        C749   1.392       .  A
C748        C772   1.490       .  S
C749        H751   1.081       .  S
Cu752       N755   2.067       .  S
Cu752      N2090   2.067       .  S
Cu753       N763   2.086       .  S
Cu754       N762   2.067       .  S
Cu754      N2100   2.065       .  S
N755        N756   1.320       .  A
N755        C759   1.341       .  A
N756        C757   1.346       .  A
N756      Cu2098   2.065   1_554  S
C757        C758   1.383       .  A
C757        H760   1.082       .  S
C758        C759   1.383       .  A
C758        C781   1.472       .  S
C759        H761   1.082       .  S
N762        N763   1.322       .  A
N762        C766   1.343       .  A
N763        C764   1.345       .  A
C764        C765   1.391       .  A
C764        H767   1.081       .  S
C765        C766   1.387       .  A
C765       C1252   1.489       .  S
C766        H768   1.080       .  S
C769        C770   1.408       .  A
C769        C774   1.412       .  A
C770        C771   1.401       .  A
C770        H775   1.082       .  S
C771        C772   1.411       .  A
C771        O776   1.371       .  S
C772        C773   1.406       .  A
C773        C774   1.401       .  A
C773       H2121   1.083       .  S
C774       O2122   1.370       .  S
O776        H780   0.992       .  S
H777       C2117   1.083       .  S
O778       C2118   1.370   1_554  S
O778        H779   0.992       .  S
C781        C782   1.400       .  A
C781        C786   1.403       .  A
C782        C783   1.405       .  A
C782        H787   1.084       .  S
C783        C784   1.419       .  A
C783        O788   1.369       .  S
C784        C785   1.409       .  A
C785        C786   1.393       .  A
C785        H789   1.079   1_554  S
C786        O790   1.373   1_554  S
O788        H792   0.992       .  S
O790        H791   0.992   1_556  S
C793        C794   1.400       .  A
C793        C798   1.408       .  A
C794        C795   1.395       .  A
C794        H799   1.084       .  S
C795        C796   1.407       .  A
C795        O800   1.372       .  S
C796        C797   1.404       .  A
C797        C798   1.402       .  A
C797        H801   1.084       .  S
C798        O802   1.372       .  S
O800        H804   0.992       .  S
O802        H803   0.992       .  S
C805        C806   1.399       .  A
C805        C810   1.407       .  A
C806        C807   1.402       .  A
C806        H811   1.084       .  S
C807        C808   1.418       .  A
C807        O812   1.370       .  S
C808        C809   1.408       .  A
C809        C810   1.402       .  A
C809        H813   1.082       .  S
C810        O814   1.372       .  S
O812        H816   0.992       .  S
O814        H815   0.992       .  S
C817        C818   1.407       .  A
C817        C822   1.415       .  A
C818        C819   1.400       .  A
C818        H823   1.082       .  S
C819        C820   1.411       .  A
C819        O824   1.370       .  S
C820        C821   1.405       .  A
C821        C822   1.401       .  A
C821        H825   1.084       .  S
C822        O826   1.370       .  S
O824        H828   0.992       .  S
O826        H827   0.992       .  S
C829        C830   1.404       .  A
C829        C834   1.411       .  A
C830        C831   1.404       .  A
C830        H835   1.083       .  S
C831        C832   1.412       .  A
C831        O836   1.372       .  S
C832        C833   1.405       .  A
C833        C834   1.400       .  A
C833        H837   1.082       .  S
C834        O838   1.371       .  S
O836        H840   0.992       .  S
O838        H839   0.992       .  S
C841        C842   1.405       .  A
C841        C846   1.408       .  A
C842        C843   1.399       .  A
C842        H847   1.083       .  S
C843        C844   1.408       .  A
C843        O848   1.371       .  S
C844        C845   1.404       .  A
C845        C846   1.400       .  A
C845        H849   1.083       .  S
C846        O850   1.371       .  S
O848        H852   0.992       .  S
O850        H851   0.992       .  S
C853        C854   1.400       .  A
C853        C858   1.409       .  A
C854        C855   1.399       .  A
C854        H859   1.084       .  S
C855        C856   1.409       .  A
C855        O860   1.371       .  S
C856        C857   1.400       .  A
C857        C858   1.399       .  A
C857        H861   1.084       .  S
C858        O862   1.372       .  S
O860        H864   0.992       .  S
O862        H863   0.992       .  S
C865        C866   1.402       .  A
C865        C870   1.408       .  A
C866        C867   1.396       .  A
C866        H871   1.084       .  S
C867        C868   1.406       .  A
C867        O872   1.372       .  S
C868        C869   1.403       .  A
C869        C870   1.404       .  A
C869        H873   1.083       .  S
C870        O874   1.371       .  S
O872        H876   0.992       .  S
O874        H875   0.992       .  S
C877        C878   1.410       .  A
C877        C882   1.417       .  A
C878        C879   1.397   1_655  A
C878        H883   1.080       .  S
C879        C880   1.405       .  A
C879        O884   1.372       .  S
C880       C2225   1.400       .  A
C881       C2224   1.400   1_554  A
C881       C2226   1.403   1_454  A
C881        H885   1.084       .  S
C882       C2225   1.403   1_655  A
C882       O2230   1.369       .  S
O884        H888   0.992       .  S
O886       C2226   1.369   1_554  S
O886        H887   0.992       .  S
C889        C890   1.404       .  A
C889        C894   1.411       .  A
C890        C891   1.395       .  A
C890        H895   1.083       .  S
C891        C892   1.404       .  A
C891        O896   1.372       .  S
C892        C893   1.402       .  A
C893        C894   1.404       .  A
C893        H897   1.084       .  S
C894        O898   1.372       .  S
O896        H900   0.992       .  S
O898        H899   0.992       .  S
C901        C902   1.404       .  A
C901        C906   1.409       .  A
C902        C903   1.400       .  A
C902        H907   1.082       .  S
C903        C904   1.417       .  A
C903        O908   1.370       .  S
C904        C905   1.408       .  A
C905        C906   1.399       .  A
C905        H909   1.080       .  S
C906        O910   1.371       .  S
O908        H912   0.992       .  S
O910        H911   0.992       .  S
C913        C914   1.408       .  A
C913        C918   1.409   1_554  A
C914        C915   1.400       .  A
C914        H919   1.083       .  S
C915        C916   1.402       .  A
C915        O920   1.371       .  S
C916        C917   1.401   1_554  A
C917        C918   1.399       .  A
C917        H921   1.084       .  S
C918       O2266   1.373       .  S
O920        H924   0.992       .  S
O922       C2262   1.373       .  S
O922        H923   0.992       .  S
C925        C926   1.402   1_565  A
C925        C930   1.404   1_655  A
C926        C927   1.405   1_655  A
C926        H931   1.084       .  S
C927        C928   1.414   1_545  A
C927        O932   1.371       .  S
C928        C929   1.408       .  A
C929        C930   1.398       .  A
C929        H933   1.082       .  S
C930        O934   1.372   1_455  S
O932        H936   0.992       .  S
O934        H935   0.992       .  S
C937        C938   1.406       .  A
C937        C942   1.413       .  A
C938        C939   1.399       .  A
C938        H943   1.080       .  S
C939        C940   1.410       .  A
C939        O944   1.371       .  S
C940        C941   1.406       .  A
C941        C942   1.402       .  A
C941        H945   1.081       .  S
C942        O946   1.374       .  S
O944        H948   0.992       .  S
O946        H947   0.993       .  S
C949        C950   1.403       .  A
C949        C954   1.404       .  A
C950        C951   1.405       .  A
C950        H955   1.083       .  S
C951        C952   1.410       .  A
C951        O956   1.371       .  S
C952        C953   1.404       .  A
C953        C954   1.396       .  A
C953        H957   1.083       .  S
C954        O958   1.372       .  S
O956        H960   0.992       .  S
O958        H959   0.992       .  S
C961        C962   1.403       .  A
C961        C966   1.413       .  A
C962        C963   1.396       .  A
C962        H967   1.084       .  S
C963        C964   1.406       .  A
C963        O968   1.372       .  S
C964        C965   1.398       .  A
C965        C966   1.401       .  A
C965        H969   1.084       .  S
C966        O970   1.371       .  S
O968        H972   0.992       .  S
O970        H971   0.992       .  S
C973        C974   1.403       .  A
C973        C978   1.407       .  A
C974        C975   1.395       .  A
C974        H979   1.083       .  S
C975        C976   1.412       .  A
C975        O980   1.370       .  S
C976        C977   1.409       .  A
C977        C978   1.402       .  A
C977        H981   1.083       .  S
C978        O982   1.372       .  S
O980        H984   0.992       .  S
O982        H983   0.992       .  S
C985        C986   1.404       .  A
C985        C990   1.408       .  A
C986        C987   1.400       .  A
C986        H991   1.084       .  S
C987        C988   1.408       .  A
C987        O992   1.371       .  S
C988        C989   1.404       .  A
C989        C990   1.401       .  A
C989        H993   1.084       .  S
C990        O994   1.372       .  S
O992        H996   0.992       .  S
O994        H995   0.992       .  S
C997        C998   1.405       .  A
C997       C1002   1.411       .  A
C998        C999   1.402       .  A
C998       H1003   1.083       .  S
C999       C1000   1.412       .  A
C999       O1004   1.371       .  S
C1000      C1001   1.405       .  A
C1001      C1002   1.401       .  A
C1001      H1005   1.082       .  S
C1002      O1006   1.372       .  S
O1004      H1008   0.992       .  S
O1006      H1007   0.992       .  S
C1009      C1010   1.405       .  A
C1009      C1014   1.412       .  A
C1010      C1011   1.400       .  A
C1010      H1015   1.082       .  S
C1011      C1012   1.413       .  A
C1011      O1016   1.370       .  S
C1012      C1013   1.407       .  A
C1013      C1014   1.401       .  A
C1013      H1017   1.083       .  S
C1014      O1018   1.370       .  S
O1016      H1020   0.992       .  S
O1018      H1019   0.992       .  S
C1021      C1022   1.405       .  A
C1021      C1026   1.410       .  A
C1022      C1023   1.400       .  A
C1022      H1027   1.083       .  S
C1023      C1024   1.411       .  A
C1023      O1028   1.371       .  S
C1024      C1025   1.407       .  A
C1025      C1026   1.404       .  A
C1025      H1029   1.083       .  S
C1026      O1030   1.371       .  S
O1028      H1032   0.992       .  S
O1030      H1031   0.992       .  S
C1033      C1034   1.404       .  A
C1033      C1038   1.407       .  A
C1034      C2379   1.401   1_554  A
C1034      H1039   1.084       .  S
C1035      C1036   1.409       .  A
C1035      C2378   1.401       .  A
C1035      O1040   1.371       .  S
C1036      C2381   1.405       .  A
C1037      C1038   1.400   1_556  A
C1037      C2380   1.405       .  A
C1037      H1041   1.083       .  S
C1038      O1042   1.371       .  S
O1040      H1044   0.992       .  S
O1042      H1043   0.992       .  S
C1045      C1046   1.403       .  A
C1045      C1050   1.407       .  A
C1046      C1047   1.403       .  A
C1046      H1051   1.083       .  S
C1047      C1048   1.411       .  A
C1047      O1052   1.373       .  S
C1048      C1049   1.408       .  A
C1049      C1050   1.395       .  A
C1049      H1053   1.080       .  S
C1050      O1054   1.372       .  S
O1052      H1056   0.992       .  S
O1054      H1055   0.992       .  S
C1057      C1058   1.398       .  A
C1057      C1062   1.405       .  A
C1058      C1059   1.401       .  A
C1058      H1063   1.084       .  S
C1059      C1060   1.415       .  A
C1059      O1064   1.370       .  S
C1060      C1061   1.404       .  A
C1061      C1062   1.396       .  A
C1061      H1065   1.084       .  S
C1062      O1066   1.372       .  S
O1064      H1068   0.992       .  S
O1066      H1067   0.992       .  S
C1069      C1070   1.401   1_565  A
C1069      C1074   1.404       .  A
C1070      C1071   1.403   1_545  A
C1070      H1075   1.084       .  S
C1071      C1072   1.412       .  A
C1071      O1076   1.371   1_565  S
C1072      C1073   1.405       .  A
C1073      C1074   1.397       .  A
C1073      H1077   1.083       .  S
C1074      O1078   1.372       .  S
O1076      H1080   0.992       .  S
O1078      H1079   0.992       .  S
C1081      C1082   1.410       .  A
C1081      C1086   1.415       .  A
C1082      C1083   1.404       .  A
C1082      H1087   1.082       .  S
C1083      C1084   1.406       .  A
C1083      O1088   1.372       .  S
C1084      C1085   1.400       .  A
C1085      C1086   1.396       .  A
C1085      H1089   1.084       .  S
C1086      O1090   1.370       .  S
O1088      H1092   0.992       .  S
O1090      H1091   0.992   1_565  S
C1093      C1094   1.405       .  A
C1093      C1098   1.412       .  A
C1094      C1095   1.400       .  A
C1094      H1099   1.082       .  S
C1095      C1096   1.410       .  A
C1095      O1100   1.372       .  S
C1096      C1097   1.405       .  A
C1097      C1098   1.403       .  A
C1097      H1101   1.083       .  S
C1098      O1102   1.371       .  S
O1100      H1104   0.992       .  S
O1102      H1103   0.992       .  S
C1105      C1106   1.408       .  A
C1105      C1110   1.411       .  A
C1106      C1107   1.395       .  A
C1106      H1111   1.080       .  S
C1107      C1108   1.408       .  A
C1107      O1112   1.372       .  S
C1108      C1109   1.404       .  A
C1109      C1110   1.401       .  A
C1109      H1113   1.083       .  S
C1110      O1114   1.371       .  S
O1112      H1116   0.992       .  S
O1114      H1115   0.992       .  S
C1117      C1118   1.404       .  A
C1117      C1122   1.416       .  A
C1118      C1119   1.397       .  A
C1118      H1123   1.083   1_565  S
C1119      C1120   1.406       .  A
C1119      O1124   1.372   1_565  S
C1120      C1121   1.398       .  A
C1121      C1122   1.402       .  A
C1121      H1125   1.084       .  S
C1122      O1126   1.370       .  S
O1124      H1128   0.992       .  S
O1126      H1127   0.992       .  S
C1129      C1130   1.409       .  A
C1129      C1134   1.415       .  A
C1130      C1131   1.399       .  A
C1130      H1135   1.080       .  S
C1131      C1132   1.409       .  A
C1131      O1136   1.371       .  S
C1132      C1133   1.403       .  A
C1133      C1134   1.402       .  A
C1133      H1137   1.084       .  S
C1134      O1138   1.370       .  S
O1136      H1140   0.992       .  S
O1138      H1139   0.992       .  S
C1141      C1142   1.405       .  A
C1141      C1146   1.408       .  A
C1142      C1143   1.402       .  A
C1142      H1147   1.084       .  S
C1143      C1144   1.408       .  A
C1143      O1148   1.371       .  S
C1144      C1145   1.404       .  A
C1145      C1146   1.400       .  A
C1145      H1149   1.084       .  S
C1146      O1150   1.372       .  S
O1148      H1152   0.992       .  S
O1150      H1151   0.992       .  S
C1153      C1154   1.400       .  A
C1153      C1158   1.404       .  A
C1154      C1155   1.401       .  A
C1154      H1159   1.084       .  S
C1155      C1156   1.417       .  A
C1155      O1160   1.369       .  S
C1156      C1157   1.410       .  A
C1157      C1158   1.400       .  A
C1157      H1161   1.081       .  S
C1158      O1162   1.372       .  S
O1160      H1164   0.992       .  S
O1162      H1163   0.992       .  S
C1165      C1166   1.410       .  A
C1165      C1170   1.414       .  A
C1166      C1167   1.404       .  A
C1166      H1171   1.082       .  S
C1167      C1168   1.406       .  A
C1167      O1172   1.372       .  S
C1168      C1169   1.401       .  A
C1169      C1170   1.396       .  A
C1169      H1173   1.084       .  S
C1170      O1174   1.370       .  S
O1172      H1176   0.992       .  S
O1174      H1175   0.992       .  S
C1177      C1178   1.403       .  A
C1177      C1182   1.405       .  A
C1178      C1179   1.397       .  A
C1178      H1183   1.083       .  S
C1179      C1180   1.414       .  A
C1179      O1184   1.370       .  S
C1180      C1181   1.411       .  A
C1181      C1182   1.401       .  A
C1181      H1185   1.082       .  S
C1182      O1186   1.372       .  S
O1184      H1188   0.992       .  S
O1186      H1187   0.992       .  S
C1189      C1190   1.403       .  A
C1189      C1194   1.409       .  A
C1190      C1191   1.397       .  A
C1190      H1195   1.084       .  S
C1191      C1192   1.406       .  A
C1191      O1196   1.372       .  S
C1192      C1193   1.403       .  A
C1193      C1194   1.405       .  A
C1193      H1197   1.083       .  S
C1194      O1198   1.371       .  S
O1196      H1200   0.992       .  S
O1198      H1199   0.992       .  S
C1201      C1202   1.402       .  A
C1201      C1206   1.409       .  A
C1202      C1203   1.400       .  A
C1202      H1207   1.084       .  S
C1203      C1204   1.408       .  A
C1203      O1208   1.371       .  S
C1204      C1205   1.401       .  A
C1205      C1206   1.400       .  A
C1205      H1209   1.084       .  S
C1206      O1210   1.371       .  S
O1208      H1212   0.992       .  S
O1210      H1211   0.992       .  S
C1213      C1214   1.409       .  A
C1213      C1218   1.418       .  A
C1214      C1215   1.398       .  A
C1214      H1219   1.081       .  S
C1215      C1216   1.407       .  A
C1215      O1220   1.371       .  S
C1216      C1217   1.401       .  A
C1217      C1218   1.399       .  A
C1217      H1221   1.083       .  S
C1218      O1222   1.370       .  S
O1220      H1224   0.992       .  S
O1222      H1223   0.993       .  S
C1225      C1226   1.403       .  A
C1225      C1230   1.404       .  A
C1226      C1227   1.404       .  A
C1226      H1231   1.084       .  S
C1227      C2572   1.410       .  A
C1227      O2576   1.372       .  S
C1228      C2571   1.410       .  A
C1228      C2573   1.403       .  A
C1229      C1230   1.394       .  A
C1229      C2572   1.403       .  A
C1229      H1233   1.083       .  S
C1230      O1234   1.372       .  S
O1232      C2571   1.372       .  S
O1232      H2580   0.992       .  S
O1234      H1235   0.992       .  S
H1236      O2576   0.992   1_556  S
C1237      C1238   1.402       .  A
C1237      C1242   1.404       .  A
C1238      C1239   1.403       .  A
C1238      H1243   1.084       .  S
C1239      C1240   1.415       .  A
C1239      O1244   1.370       .  S
C1240      C1241   1.410       .  A
C1241      C1242   1.401       .  A
C1241      H1245   1.081       .  S
C1242      O1246   1.372       .  S
O1244      H1248   0.992       .  S
O1246      H1247   0.992       .  S
C1249      C1250   1.402       .  A
C1249      C1254   1.411       .  A
C1250      C1251   1.403       .  A
C1250      H1255   1.084       .  S
C1251      C1252   1.414       .  A
C1251      O1256   1.372       .  S
C1252      C1253   1.404       .  A
C1253      C1254   1.396       .  A
C1253      H1257   1.082       .  S
C1254      O1258   1.371       .  S
O1256      H1260   0.992       .  S
O1258      H1259   0.992       .  S
C1261      C1262   1.399       .  A
C1261      C1266   1.406       .  A
C1262      C1263   1.397       .  A
C1262      H1267   1.084       .  S
C1263      C1264   1.418       .  A
C1263      O1268   1.370       .  S
C1264      C1265   1.408       .  A
C1265      C1266   1.403       .  A
C1265      H1269   1.083       .  S
C1266      O1270   1.371       .  S
O1268      H1272   0.992       .  S
O1270      H1271   0.992       .  S
C1273      C1274   1.397       .  A
C1273      C1278   1.405       .  A
C1274      C1275   1.399       .  A
C1274      H1279   1.084       .  S
C1275      C1276   1.419       .  A
C1275      O1280   1.369       .  S
C1276      C1277   1.411       .  A
C1277      C1278   1.405       .  A
C1277      H1281   1.082       .  S
C1278      O1282   1.371       .  S
O1280      H1284   0.992       .  S
O1282      H1283   0.992       .  S
C1285      C1286   1.403       .  A
C1285      C1290   1.410       .  A
C1286      C1287   1.403       .  A
C1286      H1291   1.084       .  S
C1287      C1288   1.416       .  A
C1287      O1292   1.370       .  S
C1288      C1289   1.407       .  A
C1289      C1290   1.399       .  A
C1289      H1293   1.081       .  S
C1290      O1294   1.371       .  S
O1292      H1296   0.992       .  S
O1294      H1295   0.992       .  S
C1297      C1298   1.402       .  A
C1297      C1302   1.408       .  A
C1298      C1299   1.398       .  A
C1298      H1303   1.084       .  S
C1299      C1300   1.410       .  A
C1299      O1304   1.372       .  S
C1300      C1301   1.404       .  A
C1301      C1302   1.403       .  A
C1301      H1305   1.083       .  S
C1302      O1306   1.372       .  S
O1304      H1308   0.992       .  S
O1306      H1307   0.992       .  S
C1309      C1310   1.408       .  A
C1309      C1314   1.413       .  A
C1310      C1311   1.394       .  A
C1310      H1315   1.079       .  S
C1311      C1312   1.408       .  A
C1311      O1316   1.372       .  S
C1312      C1313   1.404       .  A
C1313      C1314   1.402       .  A
C1313      H1317   1.083       .  S
C1314      O2662   1.371       .  S
O1316      H1320   0.992       .  S
O1318      C2658   1.371   1_554  S
O1318      H2663   0.992       .  S
H1319      O2662   0.992       .  S
C1321      C1322   1.402       .  A
C1321      C1326   1.412       .  A
C1322      C1323   1.397       .  A
C1322      H1327   1.084       .  S
C1323      C1324   1.407       .  A
C1323      O1328   1.372       .  S
C1324      C1325   1.398       .  A
C1325      C1326   1.401       .  A
C1325      H1329   1.084       .  S
C1326      O1330   1.371       .  S
O1328      H1332   0.992       .  S
O1330      H1331   0.992       .  S
C1333      C1334   1.406       .  A
C1333      C1338   1.411       .  A
C1334      C1335   1.402       .  A
C1334      H1339   1.082       .  S
C1335      C1336   1.412       .  A
C1335      O1340   1.371       .  S
C1336      C1337   1.405       .  A
C1337      C1338   1.400       .  A
C1337      H1341   1.082       .  S
C1338      O1342   1.372       .  S
O1340      H1344   0.992       .  S
O1342      H1343   0.992       .  S
N1345      N1346   1.322       .  A
N1345      C1349   1.347       .  A
N1345     Cu1353   2.083       .  S
N1346      C1347   1.342       .  A
N1346     Cu1352   2.072       .  S
C1347      C1348   1.387       .  A
C1347      H1350   1.080       .  S
C1348      C1349   1.390       .  A
C1348      C2677   1.489       .  S
C1349      H1351   1.081       .  S
Cu1352     N1355   2.070       .  S
Cu1353     N1363   2.083       .  S
Cu1354     N1356   2.053       .  S
Cu1354     N1362   2.055       .  S
N1355      N1356   1.319       .  A
N1355      C1359   1.343       .  A
N1356      C1357   1.343       .  A
C1357      C1358   1.381       .  A
C1357      H1360   1.082       .  S
C1358      C1359   1.384       .  A
C1358      C2668   1.467       .  S
C1359      H1361   1.082       .  S
N1362      N1363   1.322       .  A
N1362      C1366   1.340       .  A
N1363      C1364   1.347       .  A
C1364      C1365   1.388       .  A
C1364      H1367   1.082       .  S
C1365      C1366   1.382       .  A
C1365      C2656   1.480       .  S
C1366      H1368   1.081       .  S
N1369      N1370   1.321       .  A
N1369      C1373   1.343       .  A
N1369     Cu1377   2.067       .  S
N1370      C1371   1.343       .  A
N1370     Cu1376   2.070       .  S
C1371      C1372   1.385       .  A
C1371      H1374   1.082       .  S
C1372      C1373   1.386       .  A
C1372      C2593   1.480       .  S
C1373      H1375   1.082       .  S
Cu1377     N1387   2.069       .  S
Cu1378     N1386   2.081   1_554  S
N1379      N1380   1.323       .  A
N1379      C1383   1.344       .  A
N1380      C1381   1.346       .  A
C1381      C1382   1.384       .  A
C1381      H1384   1.082       .  S
C1382      C1383   1.382       .  A
C1382      C2641   1.476       .  S
C1383      H1385   1.082       .  S
N1386      N1387   1.321       .  A
N1386      C1390   1.346       .  A
N1387      C1388   1.343       .  A
C1388      C1389   1.388       .  A
C1388      H1391   1.081       .  S
C1389      C1390   1.390       .  A
C1389      C2680   1.490       .  S
C1390      H1392   1.081       .  S
N1393      N1394   1.323       .  A
N1393      C1397   1.346       .  A
N1393     Cu1401   2.085       .  S
N1394      C1395   1.346       .  A
N1394     Cu1400   2.072       .  S
C1395      C1396   1.382       .  A
C1395      H1398   1.082       .  S
C1396      C1397   1.386       .  A
C1396      C2617   1.476       .  S
C1397      H1399   1.082       .  S
Cu1400     N1403   2.071       .  S
Cu1401     N1411   2.085       .  S
Cu1402     N1404   2.064       .  S
Cu1402     N1410   2.066       .  S
N1403      N1404   1.321       .  A
N1403      C1407   1.342       .  A
N1404      C1405   1.345       .  A
C1405      C1406   1.384       .  A
C1405      H1408   1.082       .  S
C1406      C1407   1.384       .  A
C1406      C2665   1.476       .  S
C1407      H1409   1.082       .  S
N1410      N1411   1.322       .  A
N1410      C1414   1.343       .  A
N1411      C1412   1.347       .  A
C1412      C1413   1.386       .  A
C1412      H1415   1.082       .  S
C1413      C1414   1.383       .  A
C1413      C2605   1.477       .  S
C1414      H1416   1.082       .  S
N1417      N1418   1.324       .  A
N1417      C1421   1.347       .  A
N1417     Cu1425   2.089       .  S
N1418      C1419   1.343       .  A
N1418     Cu1424   2.075       .  S
C1419      C1420   1.383       .  A
C1419      H1422   1.082       .  S
C1420      C1421   1.389       .  A
C1420      C2629   1.485       .  S
C1421      H1423   1.081       .  S
Cu1424     N1427   2.075       .  S
Cu1425     N1435   2.088       .  S
Cu1426     N1428   2.064       .  S
Cu1426     N1434   2.064       .  S
N1427      N1428   1.320       .  A
N1427      C1431   1.348       .  A
N1428      C1429   1.342       .  A
C1429      C1430   1.383       .  A
C1429      H1432   1.082       .  S
C1430      C1431   1.387       .  A
C1430      C2644   1.478       .  S
C1431      H1433   1.082       .  S
N1434      N1435   1.319       .  A
N1434      C1438   1.340       .  A
N1435      C1436   1.349       .  A
C1436      C1437   1.397       .  A
C1436      H1439   1.081       .  S
C1437      C1438   1.390       .  A
C1437      C2620   1.500       .  S
C1438      H1440   1.077       .  S
N1441      N1442   1.322       .  A
N1441      C1445   1.348       .  A
N1441     Cu1449   2.086       .  S
N1442      C1443   1.344       .  A
N1442     Cu1448   2.067       .  S
C1443      C1444   1.381       .  A
C1443      H1446   1.082       .  S
C1444      C1445   1.387       .  A
C1444      C2581   1.478       .  S
C1445      H1447   1.082       .  S
Cu1448     N1451   2.067       .  S
Cu1449     N1459   2.086       .  S
Cu1450     N1452   2.069       .  S
Cu1450     N1458   2.065       .  S
N1451      N1452   1.321       .  A
N1451      C1455   1.341       .  A
N1452      C1453   1.346       .  A
C1453      C1454   1.385       .  A
C1453      H1456   1.082       .  S
C1454      C1455   1.383       .  A
C1454      C2572   1.477   1_556  S
C1455      H1457   1.082       .  S
N1458      N1459   1.322       .  A
N1458      C1462   1.342       .  A
N1459      C1460   1.346       .  A
C1460      C1461   1.389       .  A
C1460      H1463   1.082       .  S
C1461      C1462   1.382       .  A
C1461      C2512   1.477       .  S
C1462      H1464   1.082       .  S
N1465      N1466   1.320       .  A
N1465      C1469   1.347       .  A
N1465     Cu1473   2.087       .  S
N1466      C1467   1.343       .  A
N1466     Cu1472   2.071       .  S
C1467      C1468   1.389       .  A
C1467      H1470   1.081       .  S
C1468      C1469   1.394       .  A
C1468      C2584   1.497       .  S
C1469      H1471   1.080       .  S
Cu1472     N1475   2.070       .  S
Cu1473     N1483   2.088       .  S
Cu1474     N1476   2.072       .  S
Cu1474     N1482   2.073       .  S
N1475      N1476   1.321       .  A
N1475      C1479   1.342       .  A
N1476      C1477   1.346       .  A
C1477      C1478   1.385       .  A
C1477      H1480   1.082       .  S
C1478      C1479   1.382       .  A
C1478      C2545   1.473       .  S
C1479      H1481   1.082       .  S
N1482      N1483   1.321       .  A
N1482      C1486   1.345       .  A
N1483      C1484   1.345       .  A
C1484      C1485   1.393       .  A
C1484      H1487   1.081       .  S
C1485      C1486   1.391       .  A
C1485      C2632   1.496       .  S
C1486      H1488   1.080       .  S
N1489      N1490   1.322       .  A
N1489      C1493   1.347       .  A
N1489     Cu1497   2.079       .  S
N1490      C1491   1.343       .  A
N1490     Cu1496   2.072       .  S
C1491      C1492   1.383       .  A
C1491      H1494   1.082       .  S
C1492      C1493   1.385       .  A
C1492      C2533   1.477       .  S
C1493      H1495   1.082       .  S
Cu1496     N1499   2.071       .  S
Cu1497     N1507   2.080       .  S
Cu1498     N1500   2.068       .  S
Cu1498     N1506   2.068       .  S
N1499      N1500   1.321       .  A
N1499      C1503   1.343       .  A
N1500      C1501   1.346       .  A
C1501      C1502   1.383       .  A
C1501      H1504   1.082       .  S
C1502      C1503   1.382       .  A
C1502      C2548   1.471       .  S
C1503      H1505   1.082       .  S
N1506      N1507   1.321       .  A
N1506      C1510   1.343       .  A
N1507      C1508   1.344       .  A
C1508      C1509   1.392       .  A
C1508      H1511   1.079       .  S
C1509      C1510   1.388       .  A
C1509      C2524   1.493       .  S
C1510      H1512   1.081       .  S
N1513      N1514   1.322       .  A
N1513      C1517   1.348       .  A
N1513     Cu1521   2.081       .  S
N1514      C1515   1.342       .  A
N1514     Cu1520   2.064       .  S
C1515      C1516   1.381       .  A
C1515      H1518   1.082       .  S
C1516      C1517   1.385       .  A
C1516      C2536   1.472       .  S
C1517      H1519   1.082       .  S
Cu1520     N1523   2.064       .  S
Cu1521     N1531   2.081       .  S
Cu1522     N1524   2.066       .  S
Cu1522     N1530   2.059       .  S
N1523      N1524   1.321       .  A
N1523      C1527   1.342       .  A
N1524      C1525   1.346       .  A
C1525      C1526   1.382       .  A
C1525      H1528   1.082       .  S
C1526      C1527   1.381       .  A
C1526      C2569   1.469       .  S
C1527      H1529   1.082       .  S
N1530      N1531   1.319       .  A
N1530      C1534   1.339       .  A
N1531      C1532   1.343       .  A
C1532      C1533   1.395       .  A
C1532      H1535   1.081       .  S
C1533      C1534   1.390       .  A
C1533      C2557   1.498       .  S
C1534      H1536   1.076       .  S
N1537      N1538   1.321       .  A
N1537      C1541   1.344       .  A
N1537     Cu1545   2.072       .  S
N1538      C1539   1.343       .  A
N1538     Cu1544   2.069       .  S
C1539      C1540   1.384       .  A
C1539      H1542   1.082       .  S
C1540      C1541   1.387       .  A
C1540      C2521   1.478       .  S
C1541      H1543   1.082       .  S
Cu1544     N1547   2.072       .  S
Cu1545     N1555   2.073       .  S
Cu1546     N1548   2.076       .  S
Cu1546     N1554   2.075       .  S
N1547      N1548   1.322       .  A
N1547      C1551   1.345       .  A
N1548      C1549   1.345       .  A
C1549      C1550   1.384       .  A
C1549      H1552   1.082       .  S
C1550      C1551   1.385       .  A
C1550      C2485   1.479       .  S
C1551      H1553   1.082       .  S
N1554      N1555   1.319       .  A
N1554      C1558   1.344       .  A
N1555      C1556   1.344       .  A
C1556      C1557   1.392       .  A
C1556      H1559   1.081       .  S
C1557      C1558   1.392       .  A
C1557      C2500   1.497       .  S
C1558      H1560   1.078       .  S
N1561      N1562   1.322       .  A
N1561      C1565   1.346       .  A
N1561     Cu1569   2.080       .  S
N1562      C1563   1.344       .  A
N1562     Cu1568   2.073       .  S
C1563      C1564   1.383       .  A
C1563      H1566   1.082       .  S
C1564      C1565   1.385       .  A
C1564      C2497   1.477       .  S
C1565      H1567   1.082       .  S
Cu1568     N1571   2.073       .  S
Cu1569     N1579   2.080   1_545  S
Cu1570     N1572   2.058       .  S
Cu1570     N1578   2.060       .  S
N1571      N1572   1.320   1_545  A
N1571      C1575   1.343       .  A
N1572      C1573   1.343       .  A
C1573      C1574   1.386       .  A
C1573      H1576   1.080       .  S
C1574      C1575   1.388   1_565  A
C1574      C2461   1.485       .  S
C1575      H1577   1.082       .  S
N1578      N1579   1.322       .  A
N1578      C1582   1.342       .  A
N1579      C1580   1.345       .  A
C1580      C1581   1.386       .  A
C1580      H1583   1.082   1_565  S
C1581      C1582   1.383       .  A
C1581      C2452   1.479       .  S
C1582      H1584   1.081       .  S
N1585      N1586   1.319       .  A
N1585      C1589   1.344       .  A
N1585     Cu1593   2.072       .  S
N1586      C1587   1.345       .  A
N1586     Cu1592   2.068       .  S
C1587      C1588   1.389       .  A
C1587      H1590   1.081       .  S
C1588      C1589   1.389       .  A
C1588      C2437   1.488       .  S
C1589      H1591   1.081       .  S
Cu1592     N1595   2.066   1_545  S
Cu1593     N1603   2.072   1_545  S
Cu1594     N1596   2.079       .  S
Cu1594     N1602   2.079       .  S
N1595      N1596   1.323       .  A
N1595      C1599   1.341       .  A
N1596      C1597   1.347       .  A
C1597      C1598   1.384       .  A
C1597      H1600   1.082       .  S
C1598      C1599   1.380       .  A
C1598      C2464   1.469       .  S
C1599      H1601   1.082   1_565  S
N1602      N1603   1.320       .  A
N1602      C1606   1.347       .  A
N1603      C1604   1.341       .  A
C1604      C1605   1.389       .  A
C1604      H1607   1.079   1_565  S
C1605      C1606   1.392       .  A
C1605      C2425   1.494       .  S
C1606      H1608   1.081       .  S
N1609      N1610   1.321       .  A
N1609      C1613   1.346       .  A
N1609     Cu1617   2.087       .  S
N1610      C1611   1.342       .  A
N1610     Cu1616   2.075       .  S
C1611      C1612   1.392       .  A
C1611      H1614   1.080       .  S
C1612      C1613   1.395       .  A
C1612      C2473   1.500       .  S
C1613      H1615   1.079       .  S
Cu1616     N1619   2.076       .  S
Cu1617     N1627   2.085       .  S
Cu1618     N1620   2.067       .  S
Cu1618     N1626   2.067       .  S
N1619      N1620   1.321       .  A
C1621      C1622   1.383       .  A
C1621      H1624   1.082       .  S
C1622      C1623   1.386       .  A
C1622      C2488   1.478       .  S
C1623      H1625   1.082       .  S
N1626      N1627   1.321       .  A
N1626      C1630   1.342       .  A
N1627      C1628   1.349       .  A
C1628      C1629   1.390       .  A
C1628      H1631   1.082       .  S
C1629      C1630   1.385       .  A
C1629      C2440   1.486       .  S
C1630      H1632   1.081       .  S
N1633      N1634   1.323   1_545  A
N1633      C1637   1.346       .  A
N1633     Cu1641   2.078       .  S
N1634      C1635   1.344       .  A
N1634     Cu1640   2.073       .  S
C1635      C1636   1.381   1_565  A
C1635      H1638   1.082       .  S
C1636      C1637   1.383       .  A
C1636      C2413   1.470   1_545  S
C1637      H1639   1.082       .  S
Cu1640     N1643   2.073       .  S
Cu1641     N1651   2.078       .  S
Cu1642     N1644   2.053   1_545  S
Cu1642     N1650   2.055       .  S
N1643      N1644   1.320       .  A
N1643      C1647   1.343       .  A
N1644      C1645   1.344       .  A
C1645      C1646   1.380       .  A
C1645      H1648   1.082       .  S
C1646      C1647   1.384       .  A
C1646      C2401   1.466       .  S
C1647      H1649   1.082       .  S
N1650      N1651   1.321       .  A
N1650      C1654   1.341       .  A
N1651      C1652   1.345       .  A
C1652      C1653   1.386       .  A
C1652      H1655   1.082       .  S
C1653      C1654   1.382       .  A
C1653      C2389   1.477       .  S
C1654      H1656   1.081       .  S
N1657      N1658   1.321       .  A
N1657      C1661   1.343       .  A
N1657     Cu1665   2.074       .  S
N1658      C1659   1.341       .  A
N1658     Cu1664   2.068       .  S
C1659      C1660   1.388       .  A
C1659      H1662   1.081       .  S
C1660      C1661   1.389       .  A
C1660      C2449   1.488       .  S
C1661      H1663   1.081       .  S
Cu1664     N1667   2.073       .  S
Cu1665     N1675   2.074       .  S
Cu1666     N1668   2.068       .  S
Cu1666     N1674   2.068       .  S
N1667      N1668   1.322       .  A
N1667      C1671   1.346       .  A
N1668      C1669   1.343       .  A
C1669      C1670   1.383       .  A
C1669      H1672   1.082       .  S
C1670      C1671   1.386       .  A
C1670      C2377   1.478       .  S
C1671      H1673   1.082       .  S
N1674      N1675   1.320       .  A
N1674      C1678   1.343       .  A
N1675      C1676   1.346       .  A
C1676      C1677   1.388       .  A
C1676      H1679   1.082       .  S
C1677      C1678   1.385       .  A
C1677      C2416   1.483       .  S
C1678      H1680   1.082       .  S
N1681      N1682   1.321       .  A
N1681      C1685   1.349       .  A
N1681     Cu1689   2.088       .  S
N1682      C1683   1.342       .  A
N1682     Cu1688   2.067       .  S
C1683      C1684   1.384       .  A
C1683      H1686   1.082       .  S
C1684      C1685   1.391       .  A
C1684      C2365   1.487       .  S
C1685      H1687   1.081       .  S
Cu1688     N1691   2.067       .  S
Cu1689     N1699   2.088       .  S
Cu1690     N1692   2.070       .  S
Cu1690     N1698   2.066       .  S
N1691      N1692   1.320       .  A
N1691      C1695   1.343       .  A
N1692      C1693   1.346       .  A
C1693      C1694   1.386       .  A
C1693      H1696   1.081       .  S
C1694      C1695   1.384       .  A
C1694      C2380   1.480       .  S
C1695      H1697   1.082       .  S
N1698      N1699   1.322       .  A
N1698      C1702   1.341       .  A
N1699      C1700   1.347       .  A
C1700      C1701   1.392       .  A
C1700      H1703   1.082       .  S
C1701      C1702   1.387       .  A
C1701      C2608   1.493       .  S
C1702      H1704   1.079       .  S
N1705      N1706   1.320       .  A
N1705      C1709   1.346       .  A
N1705     Cu1713   2.082       .  S
N1706      C1707   1.344       .  A
N1706     Cu1712   2.068       .  S
C1707      C1708   1.386       .  A
C1707      H1710   1.082       .  S
C1708      C1709   1.391       .  A
C1708      C2368   1.489       .  S
C1709      H1711   1.081       .  S
Cu1712     N1715   2.067       .  S
Cu1713     N1723   2.083       .  S
Cu1714     N1716   2.068       .  S
Cu1714     N1722   2.070       .  S
N1715      N1716   1.321       .  A
N1715      C1719   1.340       .  A
N1716      C1717   1.345       .  A
C1717      C1718   1.387       .  A
C1717      H1720   1.081       .  S
C1718      C1719   1.385       .  A
C1718      C2404   1.481       .  S
C1719      H1721   1.082       .  S
N1722      N1723   1.321       .  A
N1722      C1726   1.345       .  A
N1723      C1724   1.343       .  A
C1724      C1725   1.390       .  A
C1724      H1727   1.081       .  S
C1725      C1726   1.389       .  A
C1725      C2353   1.492       .  S
C1726      H1728   1.080       .  S
N1729      N1730   1.321       .  A
N1729      C1733   1.346       .  A
N1729     Cu1737   2.083       .  S
N1730      C1731   1.340       .  A
N1730     Cu1736   2.066       .  S
C1731      C1732   1.387       .  A
C1731      H1734   1.082       .  S
C1732      C1733   1.393       .  A
C1732      C2356   1.493       .  S
C1733      H1735   1.079       .  S
Cu1736     N1739   2.067       .  S
Cu1737     N1747   2.084       .  S
Cu1738     N1740   2.072       .  S
Cu1738     N1746   2.072       .  S
N1739      N1740   1.321       .  A
N1739      C1743   1.345       .  A
N1740      C1741   1.344       .  A
C1741      C1742   1.384       .  A
C1741      H1744   1.082       .  S
C1742      C1743   1.385       .  A
C1742      C2329   1.478       .  S
C1743      H1745   1.082       .  S
N1746      N1747   1.322       .  A
N1746      C1750   1.343       .  A
N1747      C1748   1.348       .  A
C1748      C1749   1.389       .  A
C1748      H1751   1.082       .  S
C1749      C1750   1.386       .  A
C1749      C2341   1.487       .  S
C1750      H1752   1.081       .  S
N1753      N1754   1.320       .  A
N1753      C1757   1.345       .  A
N1753     Cu1761   2.078       .  S
N1754      C1755   1.344       .  A
N1754     Cu1760   2.068       .  S
C1755      C1756   1.388       .  A
C1755      H1758   1.081       .  S
C1756      C1757   1.390       .  A
C1756      C2344   1.489       .  S
C1757      H1759   1.081       .  S
Cu1760     N1763   2.066       .  S
Cu1761     N1771   2.078       .  S
Cu1762     N1764   2.073       .  S
Cu1762     N1770   2.074       .  S
N1763      N1764   1.322       .  A
N1763      C1767   1.341       .  A
N1764      C1765   1.346       .  A
C1765      C1766   1.387       .  A
C1765      H1768   1.081       .  S
C1766      C1767   1.383       .  A
C1766      C2305   1.478       .  S
C1767      H1769   1.082       .  S
N1770      N1771   1.321       .  A
N1770      C1774   1.345       .  A
N1771      C1772   1.343       .  A
C1772      C1773   1.390       .  A
C1772      H1775   1.080       .  S
C1773      C1774   1.389       .  A
C1773      C2509   1.491       .  S
C1774      H1776   1.082       .  S
N1777      N1778   1.321       .  A
N1777      C1781   1.342       .  A
N1777     Cu1785   2.071       .  S
N1778      C1779   1.343       .  A
N1778     Cu1784   2.069       .  S
C1779      C1780   1.385       .  A
C1779      H1782   1.082       .  S
C1780      C1781   1.387       .  A
C1780      C2317   1.479       .  S
C1781      H1783   1.082       .  S
Cu1785     N1795   2.073       .  S
Cu1786     N1794   2.074   1_554  S
N1787      N1788   1.322       .  A
N1787      C1791   1.346       .  A
N1788      C1789   1.344       .  A
C1789      C1790   1.383       .  A
C1789      H1792   1.082       .  S
C1790      C1791   1.385       .  A
C1790      C2332   1.478       .  S
C1791      H1793   1.082       .  S
N1794      N1795   1.322       .  A
N1794      C1798   1.345       .  A
N1795      C1796   1.345       .  A
C1796      C1797   1.382       .  A
C1796      H1799   1.082       .  S
C1797      C1798   1.383       .  A
C1797      C2293   1.470       .  S
C1798      H1800   1.082       .  S
N1801      N1802   1.322       .  A
N1801      C1805   1.348       .  A
N1801     Cu1809   2.078       .  S
N1802      C1803   1.342       .  A
N1802     Cu1808   2.072       .  S
C1803      C1804   1.383       .  A
C1803      H1806   1.082       .  S
C1804      C1805   1.385       .  A
C1804      C2296   1.478       .  S
C1805      H1807   1.082       .  S
Cu1808     N1811   2.072       .  S
Cu1809     N1819   2.079       .  S
Cu1810     N1812   2.053       .  S
Cu1810     N1818   2.055       .  S
N1811      N1812   1.320       .  A
N1811      C1815   1.343       .  A
N1812      C1813   1.343       .  A
C1813      C1814   1.380       .  A
C1813      H1816   1.082       .  S
C1814      C1815   1.384       .  A
C1814      C2308   1.467       .  S
C1815      H1817   1.082       .  S
N1818      N1819   1.320       .  A
N1818      C1822   1.341       .  A
N1819      C1820   1.344       .  A
C1820      C1821   1.392       .  A
C1820      H1823   1.079       .  S
C1821      C1822   1.386       .  A
C1821      C2284   1.489       .  S
C1822      H1824   1.081       .  S
N1825      N1826   1.320   1_545  A
N1825      C1829   1.348       .  A
N1825     Cu1833   2.085       .  S
N1826      C1827   1.342       .  A
N1826     Cu1832   2.066       .  S
C1827      C1828   1.387   1_565  A
C1827      H1830   1.081       .  S
C1828      C1829   1.392       .  A
C1828      C2272   1.490   1_545  S
C1829      H1831   1.081       .  S
Cu1832     N1835   2.066       .  S
Cu1833     N1843   2.086       .  S
Cu1834     N1836   2.069       .  S
Cu1834     N1842   2.071   1_565  S
N1835      N1836   1.320       .  A
N1835      C1839   1.342       .  A
N1836      C1837   1.345       .  A
C1837      C1838   1.387       .  A
C1837      H1840   1.082       .  S
C1838      C1839   1.385       .  A
C1838      C2257   1.480       .  S
N1842      N1843   1.322       .  A
N1842      C1846   1.345       .  A
N1843      C1844   1.344       .  A
C1844      C1845   1.389       .  A
C1844      H1847   1.081       .  S
C1845      C1846   1.387       .  A
C1845      C2245   1.487       .  S
C1846      H1848   1.081       .  S
N1849      N1850   1.322       .  A
N1849      C1853   1.347       .  A
N1849     Cu1857   2.085       .  S
N1850      C1851   1.345       .  A
N1850     Cu1856   2.068       .  S
C1851      C1852   1.381       .  A
C1851      H1854   1.082       .  S
C1852      C1853   1.386       .  A
C1852      C2269   1.475       .  S
C1853      H1855   1.082       .  S
Cu1856     N1859   2.069       .  S
Cu1857     N1867   2.085       .  S
Cu1858     N1860   2.068       .  S
Cu1858     N1866   2.064       .  S
N1859      N1860   1.321       .  A
N1859      C1863   1.342       .  A
N1860      C1861   1.346       .  A
C1861      C1862   1.385       .  A
C1861      H1864   1.081       .  S
C1862      C1863   1.384       .  A
C1862      C2233   1.478       .  S
C1863      H1865   1.082       .  S
N1866      N1867   1.322       .  A
N1866      C1870   1.343       .  A
N1867      C1868   1.345       .  A
C1868      C1869   1.389       .  A
C1869      C1870   1.382       .  A
C1869      C2428   1.478       .  S
C1870      H1872   1.082       .  S
N1873      N1874   1.320       .  A
N1873      C1877   1.343       .  A
N1873     Cu1881   2.075       .  S
N1874      C1875   1.340       .  A
N1874     Cu1880   2.063       .  S
C1875      C1876   1.389       .  A
C1875      H1878   1.080       .  S
C1876      C1877   1.391       .  A
C1876      C2653   1.492       .  S
Cu1880     N1883   2.072       .  S
Cu1881     N1891   2.075       .  S
Cu1882     N1884   2.067       .  S
Cu1882     N1890   2.067       .  S
N1883      N1884   1.322       .  A
N1883      C1887   1.346       .  A
N1884      C1885   1.343       .  A
C1885      C1886   1.380       .  A
C1885      H1888   1.082       .  S
C1886      C1887   1.382       .  A
C1886      C2236   1.468       .  S
C1887      H1889   1.082       .  S
N1890      N1891   1.318       .  A
N1890      C1894   1.341       .  A
N1891      C1892   1.345       .  A
C1892      C1893   1.395       .  A
C1892      H1895   1.079   1_556  S
C1893      C1894   1.391       .  A
C1893      C2221   1.498       .  S
C1894      H1896   1.080       .  S
N1897      C1901   1.344       .  A
N1897     Cu1905   2.071       .  S
N1898      C1899   1.346       .  A
N1898     Cu1904   2.074       .  S
C1899      H1902   1.082       .  S
C1900      C1901   1.384       .  A
C1900      C2224   1.477       .  S
C1901      H1903   1.082       .  S
Cu1904     N1907   2.074       .  S
Cu1905     N1915   2.071       .  S
Cu1906     N1908   2.067       .  S
N1907      N1908   1.322       .  A
N1907      C1911   1.343       .  A
N1908      C1909   1.345       .  A
C1909      C1910   1.381       .  A
C1909      H1912   1.082       .  S
C1910      C1911   1.382       .  A
C1910      C2260   1.467       .  S
C1911      H1913   1.082       .  S
N1914      N1915   1.320       .  A
N1914      C1918   1.344       .  A
N1915      C1916   1.342       .  A
C1916      C1917   1.389       .  A
C1916      H1919   1.080       .  S
C1917      C1918   1.388       .  A
C1917      C2320   1.488       .  S
C1918      H1920   1.082       .  S
N1921      N1922   1.323       .  A
N1921      C1925   1.347       .  A
N1921     Cu1929   2.076       .  S
N1922      C1923   1.343       .  A
N1922     Cu1928   2.074       .  S
C1923      C1924   1.382       .  A
C1923      H1926   1.082       .  S
C1924      C1925   1.383       .  A
C1924      C2212   1.472       .  S
C1925      H1927   1.082       .  S
Cu1928     N1931   2.073       .  S
Cu1929     N1939   2.077       .  S
Cu1930     N1932   2.056       .  S
Cu1930     N1938   2.057       .  S
N1931      N1932   1.321       .  A
N1931      C1935   1.344       .  A
N1932      C1933   1.343       .  A
C1933      C1934   1.381       .  A
C1933      H1936   1.082       .  S
C1934      C1935   1.384       .  A
C1934      C2197   1.470       .  S
C1935      H1937   1.082       .  S
N1938      N1939   1.321       .  A
N1938      C1942   1.342       .  A
N1939      C1940   1.344       .  A
C1940      C1941   1.388       .  A
C1940      H1943   1.081       .  S
C1941      C1942   1.384       .  A
C1941      C2560   1.481       .  S
C1942      H1944   1.082       .  S
N1945      N1946   1.321       .  A
N1945      C1949   1.343       .  A
N1945     Cu1953   2.075       .  S
N1946      C1947   1.341       .  A
N1946     Cu1952   2.066       .  S
C1947      C1948   1.388       .  A
C1947      H1950   1.081       .  S
C1948      C1949   1.389       .  A
C1948      C2392   1.488       .  S
C1949      H1951   1.081       .  S
Cu1952     N1955   2.072       .  S
Cu1953     N1963   2.074       .  S
Cu1954     N1956   2.064       .  S
Cu1954     N1962   2.064       .  S
N1955      N1956   1.321       .  A
N1955      C1959   1.346       .  A
N1956      C1957   1.342       .  A
C1957      C1958   1.383       .  A
C1957      H1960   1.082       .  S
C1958      C1959   1.387       .  A
C1958      C2185   1.479       .  S
C1959      H1961   1.081       .  S
N1962      N1963   1.321       .  A
N1962      C1966   1.342       .  A
N1963      C1964   1.347       .  A
C1964      C1965   1.385       .  A
C1964      H1967   1.082       .  S
C1965      C1966   1.382       .  A
C1965      C2209   1.473       .  S
C1966      H1968   1.082       .  S
N1969      N1970   1.322       .  A
N1969      C1973   1.348       .  A
N1969     Cu1977   2.087       .  S
N1970      C1971   1.343       .  A
N1970     Cu1976   2.070       .  S
C1971      C1972   1.385       .  A
C1971      H1974   1.081       .  S
C1972      C1973   1.390       .  A
C1972      C2173   1.487       .  S
C1973      H1975   1.082       .  S
Cu1976     N1979   2.069       .  S
Cu1977     N1987   2.087       .  S
Cu1978     N1980   2.062       .  S
Cu1978     N1986   2.061       .  S
N1979      N1980   1.320       .  A
C1981      C1982   1.385       .  A
C1981      H1984   1.081       .  S
C1982      C1983   1.385       .  A
C1982      C2188   1.478       .  S
C1983      H1985   1.082       .  S
N1986      N1987   1.320       .  A
N1986      C1990   1.340       .  A
N1987      C1988   1.345       .  A
C1988      C1989   1.396       .  A
C1988      H1991   1.080       .  S
C1989      C1990   1.389       .  A
C1989      C2248   1.497       .  S
C1990      H1992   1.078       .  S
N1993      N1994   1.321       .  A
N1993      C1997   1.346       .  A
N1993     Cu2001   2.083       .  S
N1994      C1995   1.344       .  A
N1994     Cu2000   2.070       .  S
C1995      C1996   1.387       .  A
C1995      H1998   1.081       .  S
C1996      C1997   1.390       .  A
C1996      C2176   1.490       .  S
C1997      H1999   1.081       .  S
Cu2000     N2003   2.069       .  S
Cu2001     N2011   2.083       .  S
Cu2002     N2004   2.068       .  S
Cu2002     N2010   2.069       .  S
N2003      N2004   1.322       .  A
N2003      C2007   1.342       .  A
N2004      C2005   1.345       .  A
C2005      C2006   1.383       .  A
C2005      H2008   1.082       .  S
C2006      C2007   1.382       .  A
C2006      C2200   1.470       .  S
C2007      H2009   1.082       .  S
N2010      N2011   1.320       .  A
N2010      C2014   1.344       .  A
N2011      C2012   1.344       .  A
C2012      C2013   1.392       .  A
C2012      H2015   1.081       .  S
C2013      C2014   1.391       .  A
C2013      C2161   1.496       .  S
C2014      H2016   1.079       .  S
N2017      N2018   1.322       .  A
N2017      C2021   1.349       .  A
N2017     Cu2025   2.091       .  S
N2018      C2019   1.343       .  A
N2018     Cu2024   2.064       .  S
C2019      C2020   1.381       .  A
C2019      H2022   1.082       .  S
C2020      C2021   1.389       .  A
C2020      C2149   1.479       .  S
C2021      H2023   1.082       .  S
Cu2024     N2027   2.064       .  S
Cu2025     N2035   2.091       .  S
Cu2026     N2028   2.063       .  S
Cu2026     N2034   2.060       .  S
N2027      N2028   1.320       .  A
N2027      C2031   1.341       .  A
N2028      C2029   1.345       .  A
C2029      C2030   1.383       .  A
C2029      H2032   1.082       .  S
C2030      C2031   1.382       .  A
C2030      C2140   1.472       .  S
C2031      H2033   1.082       .  S
N2034      N2035   1.321       .  A
N2034      C2038   1.339       .  A
N2035      C2036   1.348       .  A
C2036      C2037   1.393   1_655  A
C2037      C2038   1.384   1_455  A
C2037      C2164   1.489       .  S
C2038      H2040   1.082   1_655  S
N2041      N2042   1.319       .  A
N2041      C2045   1.348       .  A
N2041     Cu2049   2.087       .  S
N2042      C2043   1.342       .  A
N2042     Cu2048   2.063       .  S
C2043      C2044   1.388       .  A
C2043      H2046   1.079       .  S
C2044      C2045   1.394       .  A
C2044      C2152   1.495       .  S
C2045      H2047   1.081       .  S
Cu2048     N2051   2.061       .  S
Cu2049     N2059   2.089       .  S
Cu2050     N2052   2.076       .  S
Cu2050     N2058   2.078       .  S
N2051      N2052   1.318       .  A
N2051      C2055   1.338       .  A
N2052      C2053   1.347       .  A
C2053      C2054   1.396       .  A
C2053      H2056   1.079       .  S
C2054      C2055   1.391       .  A
C2054      C2128   1.498       .  S
C2055      H2057   1.079       .  S
N2058      N2059   1.323       .  A
N2058      C2062   1.345       .  A
N2059      C2060   1.346       .  A
C2060      C2061   1.387       .  A
C2060      H2063   1.082       .  S
C2061      C2062   1.387       .  A
C2061      C2476   1.486       .  S
C2062      H2064   1.081       .  S
N2065      N2066   1.320       .  A
N2065      C2069   1.347       .  A
N2065     Cu2073   2.084       .  S
N2066      C2067   1.341       .  A
N2066     Cu2072   2.065       .  S
C2067      C2068   1.387       .  A
C2067      H2070   1.081       .  S
C2068      C2069   1.394       .  A
C2068      C2113   1.494       .  S
Cu2072     N2075   2.064       .  S
Cu2073     N2083   2.083       .  S
Cu2074     N2076   2.061       .  S
Cu2074     N2082   2.055       .  S
N2075      N2076   1.320       .  A
N2075      C2079   1.342       .  A
N2076      C2077   1.345       .  A
C2077      C2078   1.382       .  A
C2077      H2080   1.082       .  S
C2078      C2079   1.382       .  A
C2078      C2137   1.470       .  S
C2079      H2081   1.082       .  S
N2082      N2083   1.320       .  A
N2082      C2086   1.338   1_655  A
C2084      H2087   1.080       .  S
C2085      C2086   1.388       .  A
C2085      C2281   1.495       .  S
C2086      H2088   1.078       .  S
N2089      N2090   1.321   1_556  A
N2089      C2093   1.348       .  A
N2089     Cu2097   2.085       .  S
N2090      C2091   1.342       .  A
C2091      C2092   1.386   1_554  A
C2091      H2094   1.082       .  S
C2092      C2093   1.392       .  A
C2092      C2116   1.490       .  S
C2093      H2095   1.081       .  S
Cu2096     N2099   2.067       .  S
Cu2097     N2107   2.086       .  S
Cu2098     N2106   2.067       .  S
N2099      N2100   1.320       .  A
N2099      C2103   1.341       .  A
N2100      C2101   1.346       .  A
C2101      C2102   1.383       .  A
C2101      H2104   1.082       .  S
C2102      C2103   1.383       .  A
C2102      C2125   1.472       .  S
C2103      H2105   1.082       .  S
N2106      N2107   1.322       .  A
N2106      C2110   1.343       .  A
N2107      C2108   1.345       .  A
C2108      C2109   1.391       .  A
C2108      H2111   1.081       .  S
C2109      C2110   1.387       .  A
C2109      C2596   1.489       .  S
C2110      H2112   1.080       .  S
C2113      C2114   1.408       .  A
C2113      C2118   1.412       .  A
C2114      C2115   1.401       .  A
C2114      H2119   1.082       .  S
C2115      C2116   1.411       .  A
C2115      O2120   1.371       .  S
C2116      C2117   1.406   1_556  A
C2117      C2118   1.401   1_554  A
O2120      H2124   0.992       .  S
O2122      H2123   0.992       .  S
C2125      C2126   1.400       .  A
C2125      C2130   1.403       .  A
C2126      C2127   1.405       .  A
C2126      H2131   1.084       .  S
C2127      C2128   1.419       .  A
C2127      O2132   1.369       .  S
C2128      C2129   1.409       .  A
C2129      C2130   1.393       .  A
C2129      H2133   1.079       .  S
C2130      O2134   1.373       .  S
O2132      H2136   0.992       .  S
O2134      H2135   0.992       .  S
C2137      C2138   1.400       .  A
C2137      C2142   1.408       .  A
C2138      C2139   1.395       .  A
C2138      H2143   1.084       .  S
C2139      C2140   1.407       .  A
C2139      O2144   1.372       .  S
C2140      C2141   1.404       .  A
C2141      C2142   1.402       .  A
C2141      H2145   1.084       .  S
C2142      O2146   1.372       .  S
O2144      H2148   0.992       .  S
O2146      H2147   0.992       .  S
C2149      C2150   1.399       .  A
C2149      C2154   1.407       .  A
C2150      C2151   1.402       .  A
C2150      H2155   1.084       .  S
C2151      C2152   1.418       .  A
C2151      O2156   1.370       .  S
C2152      C2153   1.408       .  A
C2153      C2154   1.402       .  A
C2153      H2157   1.082       .  S
C2154      O2158   1.372       .  S
O2156      H2160   0.992       .  S
O2158      H2159   0.992       .  S
C2161      C2162   1.407       .  A
C2161      C2166   1.415       .  A
C2162      C2163   1.400       .  A
C2162      H2167   1.082       .  S
C2163      C2164   1.411       .  A
C2163      O2168   1.370       .  S
C2164      C2165   1.405       .  A
C2165      C2166   1.401       .  A
C2165      H2169   1.084       .  S
C2166      O2170   1.370       .  S
O2168      H2172   0.992       .  S
O2170      H2171   0.992       .  S
C2173      C2174   1.404       .  A
C2173      C2178   1.411       .  A
C2174      C2175   1.404       .  A
C2174      H2179   1.083       .  S
C2175      C2176   1.412       .  A
C2175      O2180   1.372       .  S
C2176      C2177   1.405       .  A
C2177      C2178   1.400       .  A
C2177      H2181   1.082       .  S
C2178      O2182   1.371       .  S
O2180      H2184   0.992       .  S
O2182      H2183   0.992       .  S
C2185      C2186   1.405       .  A
C2185      C2190   1.408       .  A
C2186      C2187   1.399       .  A
C2186      H2191   1.083       .  S
C2187      C2188   1.408       .  A
C2187      O2192   1.371       .  S
C2188      C2189   1.404       .  A
C2189      C2190   1.400       .  A
C2189      H2193   1.083       .  S
C2190      O2194   1.371       .  S
O2192      H2196   0.992       .  S
O2194      H2195   0.992       .  S
C2197      C2198   1.400       .  A
C2197      C2202   1.409       .  A
C2198      C2199   1.399       .  A
C2198      H2203   1.084       .  S
C2199      C2200   1.409       .  A
C2199      O2204   1.371       .  S
C2200      C2201   1.400       .  A
C2201      C2202   1.399       .  A
C2201      H2205   1.084       .  S
C2202      O2206   1.372       .  S
O2204      H2208   0.992       .  S
O2206      H2207   0.992       .  S
C2209      C2210   1.402       .  A
C2209      C2214   1.408       .  A
C2210      C2211   1.396       .  A
C2210      H2215   1.084       .  S
C2211      C2212   1.406       .  A
C2211      O2216   1.372       .  S
C2212      C2213   1.403       .  A
C2213      C2214   1.404       .  A
C2213      H2217   1.083       .  S
C2214      O2218   1.371       .  S
O2216      H2220   0.992       .  S
O2218      H2219   0.992       .  S
C2221      C2222   1.410       .  A
C2221      C2226   1.417       .  A
C2222      C2223   1.397   1_655  A
C2222      H2227   1.080       .  S
C2223      C2224   1.405       .  A
C2223      O2228   1.372       .  S
C2225      H2229   1.084       .  S
O2228      H2232   0.992       .  S
O2230      H2231   0.992       .  S
C2233      C2234   1.404       .  A
C2233      C2238   1.411       .  A
C2234      C2235   1.395       .  A
C2234      H2239   1.083       .  S
C2235      C2236   1.404       .  A
C2235      O2240   1.372       .  S
C2236      C2237   1.402       .  A
C2237      C2238   1.404       .  A
C2237      H2241   1.084       .  S
C2238      O2242   1.372       .  S
O2240      H2244   0.992       .  S
O2242      H2243   0.992       .  S
C2245      C2246   1.404       .  A
C2245      C2250   1.409       .  A
C2246      C2247   1.400       .  A
C2246      H2251   1.082       .  S
C2247      C2248   1.417       .  A
C2247      O2252   1.370       .  S
C2248      C2249   1.408       .  A
C2249      C2250   1.399       .  A
C2249      H2253   1.080       .  S
C2250      O2254   1.371       .  S
O2252      H2256   0.992       .  S
O2254      H2255   0.992       .  S
C2257      C2258   1.408       .  A
C2257      C2262   1.409       .  A
C2258      C2259   1.400       .  A
C2258      H2263   1.083       .  S
C2259      C2260   1.402       .  A
C2259      O2264   1.371       .  S
C2260      C2261   1.401       .  A
C2261      C2262   1.399       .  A
C2261      H2265   1.084       .  S
O2264      H2268   0.992       .  S
O2266      H2267   0.992       .  S
C2269      C2270   1.402   1_565  A
C2269      C2274   1.404   1_655  A
C2270      C2271   1.405   1_655  A
C2270      H2275   1.084       .  S
C2271      C2272   1.414   1_545  A
C2271      O2276   1.371       .  S
C2272      C2273   1.408       .  A
C2273      C2274   1.398       .  A
C2273      H2277   1.082       .  S
C2274      O2278   1.372   1_455  S
O2276      H2280   0.992       .  S
O2278      H2279   0.992       .  S
C2281      C2282   1.406       .  A
C2281      C2286   1.413       .  A
C2282      C2283   1.399       .  A
C2282      H2287   1.080       .  S
C2283      C2284   1.410       .  A
C2283      O2288   1.371       .  S
C2284      C2285   1.406       .  A
C2285      C2286   1.402       .  A
C2285      H2289   1.081       .  S
C2286      O2290   1.374       .  S
O2288      H2292   0.992       .  S
O2290      H2291   0.993       .  S
C2293      C2294   1.403       .  A
C2293      C2298   1.404       .  A
C2294      C2295   1.405       .  A
C2294      H2299   1.083       .  S
C2295      C2296   1.410       .  A
C2295      O2300   1.371       .  S
C2296      C2297   1.404       .  A
C2297      C2298   1.396       .  A
C2297      H2301   1.083       .  S
C2298      O2302   1.372       .  S
O2300      H2304   0.992       .  S
O2302      H2303   0.992       .  S
C2305      C2306   1.403       .  A
C2305      C2310   1.413       .  A
C2306      C2307   1.396       .  A
C2306      H2311   1.084       .  S
C2307      C2308   1.406       .  A
C2307      O2312   1.372       .  S
C2308      C2309   1.398       .  A
C2309      C2310   1.401       .  A
C2309      H2313   1.084       .  S
C2310      O2314   1.371       .  S
O2312      H2316   0.992       .  S
O2314      H2315   0.992       .  S
C2317      C2318   1.403       .  A
C2317      C2322   1.407       .  A
C2318      C2319   1.395       .  A
C2318      H2323   1.083       .  S
C2319      C2320   1.412       .  A
C2319      O2324   1.370       .  S
C2320      C2321   1.409       .  A
C2321      C2322   1.402       .  A
C2321      H2325   1.083       .  S
C2322      O2326   1.372       .  S
O2324      H2328   0.992       .  S
O2326      H2327   0.992       .  S
C2329      C2330   1.404       .  A
C2329      C2334   1.408       .  A
C2330      C2331   1.400       .  A
C2330      H2335   1.084       .  S
C2331      C2332   1.408       .  A
C2331      O2336   1.371       .  S
C2332      C2333   1.404       .  A
C2333      C2334   1.401       .  A
C2333      H2337   1.084       .  S
C2334      O2338   1.372       .  S
O2336      H2340   0.992       .  S
O2338      H2339   0.992       .  S
C2341      C2342   1.405       .  A
C2341      C2346   1.411       .  A
C2342      C2343   1.402       .  A
C2342      H2347   1.083       .  S
C2343      C2344   1.412       .  A
C2343      O2348   1.371       .  S
C2344      C2345   1.405       .  A
C2345      C2346   1.401       .  A
C2345      H2349   1.082       .  S
C2346      O2350   1.372       .  S
O2348      H2352   0.992       .  S
O2350      H2351   0.992       .  S
C2353      C2354   1.405       .  A
C2353      C2358   1.412       .  A
C2354      C2355   1.400       .  A
C2354      H2359   1.082       .  S
C2355      C2356   1.413       .  A
C2355      O2360   1.370       .  S
C2356      C2357   1.407       .  A
C2357      C2358   1.401       .  A
C2357      H2361   1.083       .  S
C2358      O2362   1.370       .  S
O2360      H2364   0.992       .  S
O2362      H2363   0.992       .  S
C2365      C2366   1.405       .  A
C2365      C2370   1.410       .  A
C2366      C2367   1.400       .  A
C2366      H2371   1.083       .  S
C2367      C2368   1.411       .  A
C2367      O2372   1.371       .  S
C2368      C2369   1.407       .  A
C2369      C2370   1.404       .  A
C2369      H2373   1.083       .  S
C2370      O2374   1.371       .  S
O2372      H2376   0.992       .  S
O2374      H2375   0.992       .  S
C2377      C2378   1.404       .  A
C2377      C2382   1.407       .  A
C2378      H2383   1.084       .  S
C2379      C2380   1.409       .  A
C2379      O2384   1.371       .  S
C2381      C2382   1.400       .  A
C2381      H2385   1.083       .  S
C2382      O2386   1.371       .  S
O2384      H2388   0.992       .  S
O2386      H2387   0.992       .  S
C2389      C2390   1.403       .  A
C2389      C2394   1.407       .  A
C2390      C2391   1.403       .  A
C2390      H2395   1.083       .  S
C2391      C2392   1.411       .  A
C2391      O2396   1.373       .  S
C2392      C2393   1.408       .  A
C2393      C2394   1.395       .  A
C2393      H2397   1.080       .  S
C2394      O2398   1.372       .  S
O2396      H2400   0.992       .  S
O2398      H2399   0.992       .  S
C2401      C2402   1.398       .  A
C2401      C2406   1.405       .  A
C2402      C2403   1.401       .  A
C2402      H2407   1.084       .  S
C2403      C2404   1.415       .  A
C2403      O2408   1.370       .  S
C2404      C2405   1.404       .  A
C2405      C2406   1.396       .  A
C2405      H2409   1.084       .  S
C2406      O2410   1.372       .  S
O2408      H2412   0.992       .  S
O2410      H2411   0.992       .  S
C2413      C2414   1.401   1_565  A
C2413      C2418   1.404       .  A
C2414      C2415   1.403   1_545  A
C2414      H2419   1.084       .  S
C2415      C2416   1.412       .  A
C2415      O2420   1.371   1_565  S
C2416      C2417   1.405       .  A
C2417      C2418   1.397       .  A
C2417      H2421   1.083       .  S
C2418      O2422   1.372       .  S
O2420      H2424   0.992       .  S
O2422      H2423   0.992       .  S
C2425      C2426   1.410       .  A
C2425      C2430   1.415       .  A
C2426      C2427   1.404       .  A
C2426      H2431   1.082       .  S
C2427      C2428   1.406       .  A
C2427      O2432   1.372       .  S
C2428      C2429   1.400       .  A
C2429      C2430   1.396       .  A
C2429      H2433   1.084       .  S
C2430      O2434   1.370       .  S
O2432      H2436   0.992       .  S
O2434      H2435   0.992   1_565  S
C2437      C2438   1.405       .  A
C2437      C2442   1.412       .  A
C2438      C2439   1.400       .  A
C2438      H2443   1.082       .  S
C2439      C2440   1.410       .  A
C2439      O2444   1.372       .  S
C2440      C2441   1.405       .  A
C2441      C2442   1.403       .  A
C2441      H2445   1.083       .  S
C2442      O2446   1.371       .  S
O2444      H2448   0.992       .  S
O2446      H2447   0.992       .  S
C2449      C2450   1.408       .  A
C2449      C2454   1.411       .  A
C2450      C2451   1.395       .  A
C2450      H2455   1.080       .  S
C2451      C2452   1.408       .  A
C2451      O2456   1.372       .  S
C2452      C2453   1.404       .  A
C2453      C2454   1.401       .  A
C2453      H2457   1.083       .  S
C2454      O2458   1.371       .  S
O2456      H2460   0.992       .  S
O2458      H2459   0.992       .  S
C2461      C2462   1.404       .  A
C2461      C2466   1.416       .  A
C2462      C2463   1.397       .  A
C2462      H2467   1.083   1_565  S
C2463      C2464   1.406       .  A
C2463      O2468   1.372   1_565  S
C2464      C2465   1.398       .  A
C2465      C2466   1.402       .  A
C2465      H2469   1.084       .  S
C2466      O2470   1.370       .  S
O2468      H2472   0.992       .  S
O2470      H2471   0.992       .  S
C2473      C2474   1.409       .  A
C2473      C2478   1.415       .  A
C2474      C2475   1.399       .  A
C2474      H2479   1.080       .  S
C2475      C2476   1.409       .  A
C2475      O2480   1.371       .  S
C2476      C2477   1.403       .  A
C2477      C2478   1.402       .  A
C2477      H2481   1.084       .  S
C2478      O2482   1.370       .  S
O2480      H2484   0.992       .  S
O2482      H2483   0.992       .  S
C2485      C2486   1.405       .  A
C2485      C2490   1.408       .  A
C2486      C2487   1.402       .  A
C2486      H2491   1.084       .  S
C2487      C2488   1.408       .  A
C2487      O2492   1.371       .  S
C2488      C2489   1.404       .  A
C2489      C2490   1.400       .  A
C2489      H2493   1.084       .  S
C2490      O2494   1.372       .  S
O2492      H2496   0.992       .  S
O2494      H2495   0.992       .  S
C2497      C2498   1.400       .  A
C2497      C2502   1.404       .  A
C2498      C2499   1.401       .  A
C2498      H2503   1.084       .  S
C2499      C2500   1.417       .  A
C2499      O2504   1.369       .  S
C2500      C2501   1.410       .  A
C2501      C2502   1.400       .  A
C2501      H2505   1.081       .  S
C2502      O2506   1.372       .  S
O2504      H2508   0.992       .  S
O2506      H2507   0.992       .  S
C2509      C2510   1.410       .  A
C2509      C2514   1.414       .  A
C2510      C2511   1.404       .  A
C2510      H2515   1.082       .  S
C2511      C2512   1.406       .  A
C2511      O2516   1.372       .  S
C2512      C2513   1.401       .  A
C2513      C2514   1.396       .  A
C2513      H2517   1.084       .  S
C2514      O2518   1.370       .  S
O2516      H2520   0.992       .  S
O2518      H2519   0.992       .  S
C2521      C2522   1.403       .  A
C2521      C2526   1.405       .  A
C2522      C2523   1.397       .  A
C2522      H2527   1.083       .  S
C2523      C2524   1.414       .  A
C2523      O2528   1.370       .  S
C2524      C2525   1.411       .  A
C2525      C2526   1.401       .  A
C2525      H2529   1.082       .  S
C2526      O2530   1.372       .  S
O2528      H2532   0.992       .  S
O2530      H2531   0.992       .  S
C2533      C2534   1.403       .  A
C2533      C2538   1.409       .  A
C2534      C2535   1.397       .  A
C2534      H2539   1.084       .  S
C2535      C2536   1.406       .  A
C2535      O2540   1.372       .  S
C2536      C2537   1.403       .  A
C2537      C2538   1.405       .  A
C2537      H2541   1.083       .  S
C2538      O2542   1.371       .  S
O2540      H2544   0.992       .  S
O2542      H2543   0.992       .  S
C2545      C2546   1.402       .  A
C2545      C2550   1.409       .  A
C2546      C2547   1.400       .  A
C2546      H2551   1.084       .  S
C2547      C2548   1.408       .  A
C2547      O2552   1.371       .  S
C2548      C2549   1.401       .  A
C2549      C2550   1.400       .  A
C2549      H2553   1.084       .  S
C2550      O2554   1.371       .  S
O2552      H2556   0.992       .  S
O2554      H2555   0.992       .  S
C2557      C2558   1.409       .  A
C2557      C2562   1.418       .  A
C2558      C2559   1.398       .  A
C2558      H2563   1.081       .  S
C2559      C2560   1.407       .  A
C2559      O2564   1.371       .  S
C2560      C2561   1.401       .  A
C2561      C2562   1.399       .  A
C2561      H2565   1.083       .  S
C2562      O2566   1.370       .  S
O2564      H2568   0.992       .  S
O2566      H2567   0.993       .  S
C2569      C2570   1.403       .  A
C2569      C2574   1.404       .  A
C2570      C2571   1.404       .  A
C2570      H2575   1.084       .  S
C2573      C2574   1.394       .  A
C2573      H2577   1.083       .  S
C2574      O2578   1.372       .  S
O2578      H2579   0.992       .  S
C2581      C2582   1.402       .  A
C2581      C2586   1.404       .  A
C2582      C2583   1.403       .  A
C2582      H2587   1.084       .  S
C2583      C2584   1.415       .  A
C2583      O2588   1.370       .  S
C2584      C2585   1.410       .  A
C2585      C2586   1.401       .  A
C2585      H2589   1.081       .  S
C2586      O2590   1.372       .  S
O2588      H2592   0.992       .  S
O2590      H2591   0.992       .  S
C2593      C2594   1.402       .  A
C2593      C2598   1.411       .  A
C2594      C2595   1.403       .  A
C2594      H2599   1.084       .  S
C2595      C2596   1.414       .  A
C2595      O2600   1.372       .  S
C2596      C2597   1.404       .  A
C2597      C2598   1.396       .  A
C2597      H2601   1.082       .  S
C2598      O2602   1.371       .  S
O2600      H2604   0.992       .  S
O2602      H2603   0.992       .  S
C2605      C2606   1.399       .  A
C2605      C2610   1.406       .  A
C2606      C2607   1.397       .  A
C2606      H2611   1.084       .  S
C2607      C2608   1.418       .  A
C2607      O2612   1.370       .  S
C2608      C2609   1.408       .  A
C2609      C2610   1.403       .  A
C2609      H2613   1.083       .  S
C2610      O2614   1.371       .  S
O2612      H2616   0.992       .  S
O2614      H2615   0.992       .  S
C2617      C2618   1.397       .  A
C2617      C2622   1.405       .  A
C2618      C2619   1.399       .  A
C2618      H2623   1.084       .  S
C2619      C2620   1.419       .  A
C2619      O2624   1.369       .  S
C2620      C2621   1.411       .  A
C2621      C2622   1.405       .  A
C2621      H2625   1.082       .  S
C2622      O2626   1.371       .  S
O2624      H2628   0.992       .  S
O2626      H2627   0.992       .  S
C2629      C2630   1.403       .  A
C2629      C2634   1.410       .  A
C2630      C2631   1.403       .  A
C2630      H2635   1.084       .  S
C2631      C2632   1.416       .  A
C2631      O2636   1.370       .  S
C2632      C2633   1.407       .  A
C2633      C2634   1.399       .  A
C2633      H2637   1.081       .  S
C2634      O2638   1.371       .  S
O2636      H2640   0.992       .  S
O2638      H2639   0.992       .  S
C2641      C2642   1.402       .  A
C2641      C2646   1.408       .  A
C2642      C2643   1.398       .  A
C2642      H2647   1.084       .  S
C2643      C2644   1.410       .  A
C2643      O2648   1.372       .  S
C2644      C2645   1.404       .  A
C2645      C2646   1.403       .  A
C2645      H2649   1.083       .  S
C2646      O2650   1.372       .  S
O2648      H2652   0.992       .  S
O2650      H2651   0.992       .  S
C2653      C2654   1.408       .  A
C2653      C2658   1.413       .  A
C2654      C2655   1.394       .  A
C2654      H2659   1.079       .  S
C2655      C2656   1.408       .  A
C2655      O2660   1.372       .  S
C2656      C2657   1.404       .  A
C2657      C2658   1.402       .  A
C2657      H2661   1.083       .  S
O2660      H2664   0.992       .  S
C2665      C2666   1.402       .  A
C2665      C2670   1.412       .  A
C2666      C2667   1.397       .  A
C2666      H2671   1.084       .  S
C2667      C2668   1.407       .  A
C2667      O2672   1.372       .  S
C2668      C2669   1.398       .  A
C2669      C2670   1.401       .  A
C2669      H2673   1.084       .  S
C2670      O2674   1.371       .  S
O2672      H2676   0.992       .  S
O2674      H2675   0.992       .  S
C2677      C2678   1.406       .  A
C2677      C2682   1.411       .  A
C2678      C2679   1.402       .  A
C2678      H2683   1.082       .  S
C2679      C2680   1.412       .  A
C2679      O2684   1.371       .  S
C2680      C2681   1.405       .  A
C2681      C2682   1.400       .  A
C2681      H2685   1.082       .  S
C2682      O2686   1.372       .  S
O2684      H2688   0.992       .  S
O2686      H2687   0.992       .  S
