geometry optimzed in LAMMPS
_audit_creation_date              2020-12-01 
_audit_creation_method            'lammps2cif' 
_symmetry_space_group_name_H-M    'P1' 
_symmetry_Int_Tables_number       1 
_symmetry_cell_setting            triclinic 
loop_ 
_symmetry_equiv_pos_as_xyz 
  x,y,z 
_cell_length_a                    30.1011072 
_cell_length_b                    86.29612253519012 
_cell_length_c                    41.603744085253865 
_cell_angle_alpha                 90.24093270107969 
_cell_angle_beta                  90.12126307629232 
_cell_angle_gamma                 90.08734514660742 
loop_ 
_atom_site_label 
_atom_site_type_symbol 
_atom_site_fract_x 
_atom_site_fract_y 
_atom_site_fract_z 
_atom_site_charge 
O1          O  0.14239834  0.42410181  0.72716022    -0.57500
C2          C  0.13750991  0.47682978  0.75152149     0.75100
O3          O  0.22280666  0.44771054  0.79706642    -0.58600
C4          C  0.17518244  0.41506141  0.73214689     0.75100
C5          C  0.23195531  0.45386708  0.68806104     0.77500
Cd6        Cd  0.18294756  0.44768305  0.74513956     1.37500
O7          O  0.11746799  0.46518013  0.73927598    -0.57500
O8          O  0.18995557  0.45295007  0.68852575    -0.56300
C9          C  0.18792714  0.44457667  0.81316417     0.77500
O10         O  0.25197108  0.45319534  0.71505391    -0.58700
O11         O  0.17744634  0.47460760  0.76006514    -0.57100
O12         O  0.21040990  0.42126748  0.74288278    -0.57100
O13         O  0.15236424  0.44240394  0.79732525    -0.56300
O14         O  0.07925794  0.54861036  0.79081583    -0.57500
C15         C  0.04470026  0.60046147  0.77779269     0.75100
O16         O  0.99557702  0.56699109  0.71942540    -0.58600
C17         C  0.05960372  0.53763641  0.77580846     0.75100
C18         C  0.96505427  0.56647415  0.83017619     0.77500
Cd19       Cd  0.02347268  0.56816945  0.77552744     1.37500
O20         O  0.07328203  0.59039588  0.78640249    -0.57500
O21         O  0.00705742  0.56678266  0.83266672    -0.56300
C22         C  0.03446995  0.56791543  0.70725412     0.77500
O23         O  0.94921463  0.56636119  0.80169854    -0.58700
O24         O  0.00625884  0.59559440  0.77032259    -0.57100
O25         O  0.02243404  0.54087412  0.76311779    -0.57100
O26         O  0.06676811  0.56908801  0.72673224    -0.56300
O27         O  0.95786550  0.46475275  0.52968712    -0.57500
C28         C  0.40543975  0.41391421  0.53233554     0.75100
O29         O  0.32258471  0.45136814  0.54324739    -0.58600
C30         C  0.43646507  0.47627296  0.51850899     0.75100
C31         C  0.40990254  0.44340747  0.45317158     0.77500
Cd32       Cd  0.39641590  0.44642805  0.52048506     1.37500
O33         O  0.43817155  0.42305061  0.53708877    -0.57500
O34         O  0.44007164  0.44093895  0.47376673    -0.56300
C35         C  0.33698936  0.45228348  0.57206291     0.77500
O36         O  0.37115958  0.44654131  0.46382976    -0.58700
O37         O  0.36915423  0.42021457  0.52409215    -0.57100
O38         O  0.39650640  0.47385184  0.51020023    -0.57100
O39         O  0.37862593  0.45099335  0.57632050    -0.56300
O40         O  0.00242770  0.54830283  0.49156545    -0.57500
C41         C  0.04869713  0.59547522  0.48144508     0.75100
O42         O  0.10346552  0.56602514  0.55508857    -0.58600
C43         C  0.02139195  0.53594002  0.50077518     0.75100
C44         C  0.13374804  0.56103882  0.44872330     0.77500
Cd45       Cd  0.06932385  0.56462301  0.49994961     1.37500
O46         O  0.02072799  0.58467889  0.47641941    -0.57500
O47         O  0.09221711  0.56162927  0.44411366    -0.56300
C48         C  0.06650307  0.56817646  0.56927190     0.77500
O49         O  0.14640381  0.56102359  0.47797119    -0.58700
O50         O  0.08437537  0.59194231  0.49576162    -0.57100
O51         O  0.06261017  0.53681556  0.50676464    -0.57100
O52         O  0.03279259  0.56914490  0.55123307    -0.56300
O53         O  0.40494840  0.42465578  0.23416958    -0.57500
C54         C  0.40151650  0.47866323  0.25216655     0.75100
O55         O  0.98041731  0.44741111  0.30182068    -0.58600
C56         C  0.44015253  0.41645489  0.23617328     0.75100
C57         C  0.00106518  0.45444081  0.19416738     0.77500
Cd58       Cd  0.44512215  0.44923167  0.24820548     1.37500
O59         O  0.38077332  0.46688474  0.24102630    -0.57500
O60         O  0.45943188  0.45218838  0.19133170    -0.56300
C61         C  0.44351405  0.44515343  0.31620998     0.77500
O62         O  0.01658033  0.45527506  0.22266082    -0.58700
O63         O  0.44213075  0.47676141  0.25934632    -0.57100
O64         O  0.47554990  0.42376614  0.24244681    -0.57100
O65         O  0.40916848  0.44501787  0.29859233    -0.56300
O66         O  0.35074816  0.55166426  0.27910057    -0.57500
C67         C  0.31151174  0.60339606  0.26988765     0.75100
O68         O  0.24840469  0.56703447  0.22153131    -0.58600
C69         C  0.32676328  0.54021344  0.27012794     0.75100
C70         C  0.23915283  0.56783540  0.33223312     0.77500
Cd71       Cd  0.28930126  0.57083120  0.27303149     1.37500
O72         O  0.34078115  0.59348510  0.27813080    -0.57500
O73         O  0.28123127  0.56872912  0.33184269    -0.56300
C74         C  0.28261785  0.56993635  0.20447645     0.77500
O75         O  0.21973159  0.56888405  0.30506623    -0.58700
O76         O  0.27223326  0.59831866  0.26615991    -0.57100
O77         O  0.28629322  0.54306071  0.26431167    -0.57100
O78         O  0.31767618  0.57356001  0.21958412    -0.56300
O79         O  0.22350692  0.55460696  0.98627484    -0.57500
C80         C  0.26283094  0.60406569  0.98886703     0.75100
O81         O  0.32609311  0.57226440  0.04840339    -0.58600
C82         C  0.24523984  0.54263064  0.99465728     0.75100
C83         C  0.35088005  0.56870961  0.94261295     0.77500
Cd84       Cd  0.28820408  0.57214156  0.99487619     1.37500
O85         O  0.23719589  0.59343157  0.97844630    -0.57500
O86         O  0.30926761  0.56925765  0.93808915    -0.56300
C87         C  0.29004506  0.57169325  0.06432496     0.77500
O88         O  0.36402030  0.56958169  0.97163766    -0.58700
O89         O  0.29946748  0.59983697  0.00088595    -0.57100
O90         O  0.28642263  0.54438400  0.99978277    -0.57100
O91         O  0.25482515  0.57143844  0.04774884    -0.56300
O92         O  0.20357357  0.47020764  0.02322271    -0.57500
C93         C  0.16122968  0.41710809  0.02255105     0.75100
O94         O  0.08213948  0.45194676  0.04967792    -0.58600
C95         C  0.17656642  0.48071689  0.01399801     0.75100
C96         C  0.16274966  0.44735486  0.95054852     0.77500
Cd97       Cd  0.14952591  0.44945823  0.01745468     1.37500
O98         O  0.19293585  0.42633743  0.02993535    -0.57500
O99         O  0.19477257  0.44716748  0.97048568    -0.56300
C100        C  0.10309421  0.45273267  0.07637746     0.77500
O101        O  0.12330946  0.44849173  0.96175606    -0.58700
O102        O  0.12441138  0.42303299  0.01406745    -0.57100
O103        O  0.13682371  0.47659577  0.00794118    -0.57100
O104        O  0.14529743  0.45215920  0.07523247    -0.56300
O105        O  0.39985007  0.33679051  0.53715753    -0.57500
C106        C  0.40312700  0.28654908  0.51662250     0.75100
O107        O  0.48178533  0.31569387  0.46315321    -0.58600
C108        C  0.42902646  0.34727316  0.53301093     0.75100
C109        C  0.50740986  0.30987199  0.57162450     0.77500
Cd110      Cd  0.44852642  0.31551786  0.51835361     1.37500
O111        O  0.38462660  0.29833611  0.52931583    -0.57500
O112        O  0.46560313  0.30861114  0.57327219    -0.56300
C113        C  0.44430860  0.31744782  0.44928611     0.77500
O114        O  0.52341386  0.31265259  0.54388711    -0.58700
O115        O  0.44252917  0.28830074  0.50653451    -0.57100
O116        O  0.46688687  0.34291351  0.52340246    -0.57100
O117        O  0.41074657  0.31890773  0.46730539    -0.56300
O118        O  0.34687605  0.21684781  0.47024480    -0.57500
C119        C  0.29808127  0.16458365  0.46188752     0.75100
O120        O  0.26949652  0.19436840  0.53289216    -0.58600
C121        C  0.32414298  0.22719406  0.48485596     0.75100
C122        C  0.23636876  0.20164710  0.42110694     0.77500
Cd123      Cd  0.29036753  0.19674528  0.47628928     1.37500
O124        O  0.32778989  0.17413144  0.45251635    -0.57500
O125        O  0.27851232  0.20229789  0.42039297    -0.56300
C126        C  0.30960679  0.19295164  0.54267137     0.77500
O127        O  0.21832852  0.19990297  0.44864352    -0.58700
O128        O  0.26603301  0.17022657  0.47788188    -0.57100
O129        O  0.28469513  0.22361027  0.49291002    -0.57100
O130        O  0.33960378  0.19222937  0.52124061    -0.56300
O131        O  0.12911979  0.21412670  0.97349177    -0.57500
C132        C  0.07955244  0.16378217  0.97319695     0.75100
O133        O  0.51890812  0.19606619  0.02750949    -0.58600
C134        C  0.10689692  0.22574893  0.98352920     0.75100
C135        C  0.52020281  0.20171276  0.91802742     0.77500
Cd136      Cd  0.56436994  0.19657421  0.97767106     1.37500
O137        O  0.11249010  0.17307157  0.97310953    -0.57500
O138        O  0.56204536  0.20033390  0.92026945    -0.56300
C139        C  0.55316431  0.19460873  0.04537107     0.77500
O140        O  0.49806935  0.20134583  0.94409910    -0.58700
O141        O  0.54116661  0.16995266  0.97250579    -0.57100
O142        O  0.56565388  0.22377522  0.98894069    -0.57100
O143        O  0.09073825  0.19443965  0.03143672    -0.56300
O144        O  0.14603238  0.29827177  0.01852218    -0.57500
C145        C  0.18367102  0.35044875  0.02033122     0.75100
O146        O  0.27205445  0.31560359  0.04529214    -0.58600
C147        C  0.17121766  0.28770955  0.00712578     0.75100
C148        C  0.20756663  0.32137185  0.94523691     0.71100
Cd149      Cd  0.20349182  0.31843112  0.01345186     1.37500
O150        O  0.15224636  0.34052651  0.02147453    -0.57500
O151        O  0.17150544  0.32088302  0.96085265    -0.56300
C152        C  0.25189712  0.31474661  0.07216278     0.77500
O153        O  0.24339621  0.32077193  0.96166866    -0.58700
O154        O  0.22278325  0.34515047  0.01833627    -0.57100
O155        O  0.21091594  0.29141915  0.00042139    -0.57100
O156        O  0.20974417  0.31518450  0.07133593    -0.56300
O157        O  0.50824923  0.21369765  0.25829959    -0.57500
C158        C  0.55799462  0.16321734  0.26626320     0.75100
O159        O  0.09982457  0.19495229  0.19705986    -0.58600
C160        C  0.53141682  0.22540055  0.24993087     0.75100
C161        C  0.12981167  0.20074492  0.30444721     0.77500
Cd162      Cd  0.07012751  0.19546242  0.25185290     1.37500
O163        O  0.52967456  0.17318405  0.27584552    -0.57500
O164        O  0.08845775  0.19858097  0.30811234    -0.56300
C165        C  0.06184096  0.19298081  0.18395864     0.77500
O166        O  0.14403968  0.20084213  0.27559836    -0.58700
O167        O  0.09031977  0.16846919  0.24966847    -0.57100
O168        O  0.57208685  0.22301547  0.24394562    -0.57100
O169        O  0.52869326  0.19149017  0.20256270    -0.56300
O170        O  0.46341012  0.33930386  0.22461228    -0.57500
C171        C  0.45751166  0.28735243  0.24145496     0.75100
O172        O  0.38042058  0.31773337  0.29650015    -0.58600
C173        C  0.43396908  0.34939493  0.23136737     0.75100
C174        C  0.35471147  0.31319963  0.19000169     0.77500
Cd175      Cd  0.41578990  0.31719215  0.24244777     1.37500
O176        O  0.47936491  0.29938906  0.23347574    -0.57500
O177        O  0.39621364  0.31478532  0.18611302    -0.56300
C178        C  0.41744013  0.31885427  0.31124877     0.77500
O179        O  0.34076468  0.31304651  0.21887795    -0.58700
O180        O  0.41680450  0.28928355  0.24797038    -0.57100
O181        O  0.39767433  0.34442836  0.24269766    -0.57100
O182        O  0.45198756  0.31936504  0.29400236    -0.56300
O183        O  0.21322214  0.33977981  0.72317428    -0.57500
C184        C  0.22701385  0.28582505  0.73569116     0.75100
O185        O  0.14969098  0.31321655  0.79429635    -0.58600
C186        C  0.17785110  0.34747587  0.72865214     0.75100
C187        C  0.11910528  0.30948658  0.68588443     0.77500
Cd188      Cd  0.17880664  0.31446797  0.73846291     1.37500
O189        O  0.24586219  0.29849878  0.72779644    -0.57500
O190        O  0.15967530  0.31304021  0.68199490    -0.56300
C191        C  0.18666488  0.31719207  0.80695166     0.77500
O192        O  0.10600736  0.30755140  0.71475216    -0.58700
O193        O  0.18601045  0.28660488  0.74240138    -0.57100
O194        O  0.14493085  0.33951286  0.73776733    -0.57100
O195        O  0.21849998  0.31990312  0.78791925    -0.56300
O196        O  0.32054775  0.17557592  0.76411808    -0.57500
C197        C  0.32096491  0.22704374  0.74598696     0.75100
O198        O  0.44027560  0.20193288  0.76911103    -0.58600
C199        C  0.35085382  0.16569169  0.75813525     0.75100
C200        C  0.35920537  0.19531838  0.67729231     0.77500
Cd201      Cd  0.36600153  0.19779580  0.74542045     1.37500
O202        O  0.30056119  0.21456857  0.75294223    -0.57500
O203        O  0.32822186  0.19199401  0.69654447    -0.56300
C204        C  0.42517837  0.20259307  0.79769579     0.77500
O205        O  0.39664601  0.19903092  0.68953111    -0.58700
O206        O  0.36220844  0.22585142  0.74055221    -0.57100
O207        O  0.38765730  0.17094515  0.74816901    -0.57100
O208        O  0.38346242  0.20151158  0.80121025    -0.56300
O209        O  0.20260567  0.92324054  0.51515872    -0.57500
C210        C  0.19119869  0.97557035  0.49923427     0.75100
O211        O  0.11675444  0.94187634  0.44919701    -0.58600
C212        C  0.17248256  0.91327584  0.50874298     0.75100
C213        C  0.09722895  0.94917240  0.55845421     0.77500
Cd214      Cd  0.15267040  0.94547023  0.50271548     1.37500
O215        O  0.21356625  0.96423625  0.51034695    -0.57500
O216        O  0.13910396  0.94780361  0.56044090    -0.56300
C217        C  0.15352905  0.94241984  0.43405431     0.77500
O218        O  0.08058131  0.94942110  0.53026099    -0.58700
O219        O  0.15097332  0.97297581  0.49173884    -0.57100
O220        O  0.13435628  0.91845509  0.50178034    -0.57100
O221        O  0.18787130  0.94479972  0.45096438    -0.56300
O222        O  0.25123734  0.04804353  0.47040205    -0.57500
C223        C  0.30601479  0.09761489  0.46475665     0.75100
O224        O  0.35490504  0.06573954  0.53126805    -0.58600
C225        C  0.27132070  0.03597552  0.48031822     0.75100
C226        C  0.37781460  0.06014193  0.42580264     0.77500
Cd227      Cd  0.31767726  0.06518045  0.47819964     1.37500
O228        O  0.27740223  0.08778575  0.45483517    -0.57500
O229        O  0.33659952  0.06239597  0.42203510    -0.56300
C230        C  0.31929861  0.06850577  0.54676044     0.77500
O231        O  0.39198310  0.05973993  0.45465369    -0.58700
O232        O  0.33765107  0.09223059  0.48133953    -0.57100
O233        O  0.31209999  0.03747588  0.48720893    -0.57100
O234        O  0.28408343  0.06992599  0.53026962    -0.56300
O235        O  0.54289662  0.04264079  0.97493991    -0.57500
C236        C  0.09029812  0.09665480  0.97813324     0.75100
O237        O  0.10787155  0.06523808  0.04029942    -0.58600
C238        C  0.56889474  0.03274481  0.98790082     0.75100
C239        C  0.14189170  0.06173634  0.92587903     0.77500
Cd240      Cd  0.09309562  0.06416373  0.98333308     1.37500
O241        O  0.55759916  0.08835854  0.96821016    -0.57500
O242        O  0.09959087  0.06220493  0.92589504    -0.56300
C243        C  0.06691289  0.06708042  0.04759354     0.77500
O244        O  0.16170234  0.06165336  0.95309574    -0.58700
O245        O  0.12403192  0.08972128  0.98970087    -0.57100
O246        O  0.10717474  0.03742842  0.99712005    -0.57100
O247        O  0.53860120  0.06782598  0.02466884    -0.56300
O248        O  0.00182831  0.96091546  0.01956932    -0.57500
C249        C  0.43604619  0.91457961  0.02093669     0.75100
O250        O  0.35568687  0.95214105  0.03665527    -0.58600
C251        C  0.48593934  0.97384918  0.01035863     0.75100
C252        C  0.42779671  0.94604342  0.94302017     0.77500
Cd253      Cd  0.42980364  0.94731396  0.01178063     1.37500
O254        O  0.96602134  0.92335453  0.03253335    -0.57500
O255        O  0.46213544  0.94340917  0.95974729    -0.56300
C256        C  0.37086560  0.95198374  0.06522831     0.77500
O257        O  0.39253791  0.94949209  0.95837759    -0.58700
O258        O  0.40606407  0.92106329  0.00449422    -0.57100
O259        O  0.44456116  0.97444602  0.00483083    -0.57100
O260        O  0.41267014  0.95118373  0.06814860    -0.56300
O261        O  0.09651520  0.04639431  0.25627505    -0.57500
C262        C  0.04579734  0.09637511  0.26444246     0.75100
O263        O  0.49400456  0.06436170  0.19829945    -0.58600
C264        C  0.07458109  0.03457411  0.24675493     0.75100
C265        C  0.48074865  0.05961381  0.30826045     0.77500
Cd266      Cd  0.03235682  0.06403752  0.25144509     1.37500
O267        O  0.07540749  0.08655119  0.27238315    -0.57500
O268        O  0.52280564  0.05951801  0.30815458    -0.56300
C269        C  0.52988645  0.06723786  0.18314738     0.77500
O270        O  0.46149393  0.06074563  0.28102489    -0.58700
O271        O  0.51168851  0.09094780  0.25000029    -0.57100
O272        O  0.03361833  0.03648818  0.24077655    -0.57100
O273        O  0.06524030  0.06854906  0.19991790    -0.56300
O274        O  0.15682055  0.92041155  0.20875301    -0.57500
C275        C  0.15213084  0.97370406  0.22977834     0.75100
O276        O  0.21829743  0.94567320  0.28461028    -0.58600
C277        C  0.18743907  0.91163799  0.21963950     0.75100
C278        C  0.25498838  0.94898890  0.17653534     0.77500
Cd279      Cd  0.19385378  0.94419286  0.22820953     1.37500
O280        O  0.13105012  0.96203414  0.21846617    -0.57500
O281        O  0.21364073  0.94709805  0.17181330    -0.56300
C282        C  0.18055079  0.94163467  0.29578626     0.77500
O283        O  0.26832076  0.94904688  0.20565109    -0.58700
O284        O  0.19224528  0.97158391  0.23795667    -0.57100
O285        O  0.22026960  0.91805159  0.23351384    -0.57100
O286        O  0.15037525  0.93850535  0.27544417    -0.56300
O287        O  0.38282789  0.96200317  0.72460221    -0.57500
C288        C  0.43342968  0.91085760  0.72900986     0.75100
O289        O  0.01592901  0.94802739  0.70492329    -0.58600
C290        C  0.40412347  0.97390924  0.73455668     0.75100
C291        C  0.44860576  0.94438454  0.80454781     0.77500
Cd292      Cd  0.44597950  0.94398392  0.73555704     1.37500
O293        O  0.40026530  0.91999917  0.72714513    -0.57500
O294        O  0.41341329  0.94226299  0.78835382    -0.56300
C295        C  0.99666385  0.94786361  0.67757878     0.77500
O296        O  0.98467483  0.94567920  0.78877466    -0.58700
O297        O  0.47095332  0.91727316  0.73276930    -0.57100
O298        O  0.44365029  0.97162861  0.74392062    -0.57100
O299        O  0.45481599  0.94658278  0.67773886    -0.56300
O300        O  0.35808086  0.04757441  0.76382456    -0.57500
C301        C  0.32101504  0.09951978  0.76437720     0.75100
O302        O  0.26449621  0.06875739  0.69993748    -0.58600
C303        C  0.33543319  0.03656700  0.75133460     0.75100
C304        C  0.24384064  0.06350667  0.80820976     0.77500
Cd305      Cd  0.30008489  0.06749444  0.75387021     1.37500
O306        O  0.35079795  0.08918305  0.76800958    -0.57500
O307        O  0.28581385  0.06403015  0.81059965    -0.56300
C308        C  0.30171203  0.06956227  0.68541810     0.77500
O309        O  0.22732421  0.06443860  0.78004727    -0.58700
O310        O  0.28213230  0.09492810  0.75753671    -0.57100
O311        O  0.29689936  0.04003216  0.74142589    -0.57100
O312        O  0.33640581  0.07006090  0.70268384    -0.56300
O313        O  0.94643880  0.83425760  0.72280680    -0.57500
C314        C  0.45847109  0.78368255  0.73057876     0.75100
O315        O  0.36650238  0.80496778  0.78652629    -0.58600
C316        C  0.41515131  0.84359761  0.72769387     0.75100
C317        C  0.35323857  0.80694386  0.67466612     0.77500
Cd318      Cd  0.40362331  0.81066609  0.73366695     1.37500
O319        O  0.97350212  0.79694827  0.72375213    -0.57500
O320        O  0.39524330  0.80725593  0.67592375    -0.56300
C321        C  0.39971002  0.80970036  0.80297521     0.77500
O322        O  0.33316932  0.80727951  0.70162684    -0.58700
O323        O  0.41772693  0.78316529  0.73811420    -0.57100
O324        O  0.37809049  0.83760142  0.73501706    -0.57100
O325        O  0.43256132  0.81492369  0.78748117    -0.56300
O326        O  0.03975404  0.71435140  0.75028511    -0.57500
C327        C  0.08224607  0.66544662  0.75499332     0.75100
O328        O  0.13949839  0.69603317  0.68577940    -0.58600
C329        C  0.05812981  0.72648711  0.73920788     0.75100
C330        C  0.16694191  0.70184041  0.79028292     0.77500
Cd331      Cd  0.10360896  0.69707265  0.73949803     1.37500
O332        O  0.05287076  0.67597655  0.75732856    -0.57500
O333        O  0.12547999  0.70069886  0.79486208    -0.56300
C334        C  0.10336571  0.69294241  0.67113242     0.77500
O335        O  0.18018850  0.70096708  0.76130508    -0.58700
O336        O  0.12049879  0.66982847  0.74634349    -0.57100
O337        O  0.09794229  0.72511341  0.72988231    -0.57100
O338        O  0.06894663  0.69159531  0.68826417    -0.56300
O339        O  0.39290895  0.83958644  0.03323606    -0.57500
C340        C  0.35356147  0.79162856  0.01833166     0.75100
O341        O  0.95018884  0.80618411  0.95796421    -0.58600
C342        C  0.42288737  0.84773403  0.02002493     0.75100
C343        C  0.98227352  0.80862754  0.06308772     0.77500
Cd344      Cd  0.42073349  0.81462518  0.01151045     1.37500
O345        O  0.34323250  0.80582010  0.02160992    -0.57500
O346        O  0.44196467  0.81045704  0.06741845    -0.56300
C347        C  0.41888867  0.81188933  0.94194292     0.77500
O348        O  0.99480227  0.80829377  0.03389798    -0.58700
O349        O  0.39431756  0.78840828  0.01512427    -0.57100
O350        O  0.44989536  0.84049528  0.00222492    -0.57100
O351        O  0.38924024  0.81860891  0.95835865    -0.56300
O352        O  0.31443308  0.72685099  0.97292485    -0.57500
C353        C  0.25665311  0.66984824  0.98203907     0.75100
O354        O  0.30998206  0.69854099  0.03171244    -0.58600
C355        C  0.28437906  0.73293693  0.99020361     0.75100
C356        C  0.26162947  0.70352683  0.91069163     0.77500
Cd357      Cd  0.28812866  0.70078417  0.97656628     1.37500
O358        O  0.29246777  0.67349668  0.96784135    -0.57500
O359        O  0.30262768  0.70162242  0.91758671    -0.56300
C360        C  0.35142294  0.69706562  0.02712759     0.77500
O361        O  0.23468496  0.70400094  0.93415528    -0.58700
O362        O  0.23373346  0.68082037  0.99430133    -0.57100
O363        O  0.25330461  0.72411705  0.00028839    -0.57100
O364        O  0.36513512  0.69707040  0.99807085    -0.56300
O365        O  0.16126957  0.83747557  0.51360665    -0.57500
C366        C  0.15796332  0.78527120  0.49565770     0.75100
O367        O  0.23577666  0.81248129  0.44161727    -0.58600
C368        C  0.19294283  0.84672377  0.50689004     0.75100
C369        C  0.25777055  0.80896603  0.55270598     0.77500
Cd370      Cd  0.20309519  0.81426520  0.49693756     1.37500
O371        O  0.13634631  0.79756834  0.50227540    -0.57500
O372        O  0.21619877  0.81125511  0.55444056    -0.56300
C373        C  0.19891783  0.81512049  0.42740752     0.77500
O374        O  0.27464009  0.80877389  0.52459615    -0.58700
O375        O  0.19971575  0.78659423  0.49294886    -0.57100
O376        O  0.22889562  0.84086823  0.49673279    -0.57100
O377        O  0.16599347  0.81798345  0.44535210    -0.56300
O378        O  0.10801412  0.71328915  0.46537334    -0.57500
C379        C  0.04259946  0.66126325  0.46267097     0.75100
O380        O  0.03041157  0.69347356  0.52531394    -0.58600
C381        C  0.08212443  0.72429384  0.47391971     0.75100
C382        C  0.01621372  0.69904592  0.40707571     0.77500
Cd383      Cd  0.05112508  0.69373894  0.46877272     1.37500
O384        O  0.07990392  0.66797688  0.45800437    -0.57500
O385        O  0.05707189  0.69578522  0.41159567    -0.56300
C386        C  0.07039098  0.69108850  0.53464369     0.77500
O387        O  0.99115242  0.70019874  0.43175967    -0.58700
O388        O  0.00966346  0.66999025  0.46895804    -0.57100
O389        O  0.04145399  0.72090597  0.47884925    -0.57100
O390        O  0.10025063  0.68940688  0.51327422    -0.56300
O391        O  0.31707107  0.71577038  0.23065696    -0.57500
C392        C  0.35475856  0.66789452  0.24266437     0.75100
O393        O  0.43077762  0.70066349  0.17496750    -0.58600
C394        C  0.33545826  0.72799327  0.22010899     0.75100
C395        C  0.43949980  0.70378746  0.28038564     0.77500
Cd396      Cd  0.38374557  0.69895949  0.22489891     1.37500
O397        O  0.32671534  0.67864638  0.23788431    -0.57500
O398        O  0.39785732  0.70573113  0.28097976    -0.56300
C399        C  0.40079774  0.69506651  0.15675287     0.77500
O400        O  0.45659908  0.70071786  0.25319174    -0.58700
O401        O  0.39524005  0.67152811  0.23943784    -0.57100
O402        O  0.37611983  0.72685578  0.21287204    -0.57100
O403        O  0.36555241  0.69060104  0.17037220    -0.56300
O404        O  0.24547752  0.79791289  0.20031420    -0.57500
C405        C  0.18312332  0.84467945  0.21176705     0.75100
O406        O  0.09985723  0.80484666  0.19816658    -0.58600
C407        C  0.23218315  0.78456173  0.20902585     0.75100
C408        C  0.18101966  0.81165428  0.28728269     0.77500
Cd409      Cd  0.17613683  0.81137313  0.21725758     1.37500
O410        O  0.21428967  0.83616440  0.20101747    -0.57500
O411        O  0.21467658  0.81256751  0.26924480    -0.56300
C412        C  0.10908081  0.80614715  0.16847140     0.77500
O413        O  0.14399289  0.81002420  0.27279824    -0.58700
O414        O  0.14961437  0.83775987  0.22304702    -0.57100
O415        O  0.19289073  0.78373926  0.21979693    -0.57100
O416        O  0.14926566  0.80891489  0.16157856    -0.56300
C417        C  0.32852978  0.75711042  0.22576916    -0.01500
C418        C  0.31051848  0.74274094  0.21556993     0.08200
C419        C  0.26882256  0.74253389  0.19997647    -0.01600
C420        C  0.24413977  0.75630986  0.19654792    -0.01600
C421        C  0.26106294  0.77055400  0.20819492     0.08300
C422        C  0.30401554  0.77094638  0.22196830    -0.01800
Br423      Br  0.32853751  0.79028358  0.23758345    -0.00400
Br424      Br  0.38579018  0.75793557  0.24671131    -0.00500
Br425      Br  0.18772242  0.75563768  0.17450478    -0.00400
Br426      Br  0.24645578  0.72349560  0.18135858    -0.00400
C427        C  0.00537565  0.68896540  0.35136237    -0.01500
C428        C  0.99875781  0.70090929  0.37406902     0.08200
C429        C  0.47645038  0.71460757  0.36481946    -0.01600
C430        C  0.45983008  0.71608385  0.33324120    -0.01600
C431        C  0.46543914  0.70394660  0.31071994     0.08300
C432        C  0.99026639  0.69066116  0.31954798    -0.01800
Br433      Br  0.00167339  0.67436349  0.28873924    -0.00400
Br434      Br  0.03094314  0.66950099  0.36470347    -0.00500
Br435      Br  0.43127120  0.73506209  0.32030855    -0.00400
Br436      Br  0.46955263  0.73139901  0.39521535    -0.00400
C437        C  0.21951036  0.82170809  0.33778159    -0.01500
C438        C  0.18523469  0.81267284  0.32327607     0.08200
C439        C  0.15498409  0.80481200  0.34356402    -0.01600
C440        C  0.15829218  0.80622427  0.37736504    -0.01600
C441        C  0.19374808  0.81460471  0.39165152     0.08300
C442        C  0.22364223  0.82259272  0.37162284    -0.01800
Br443      Br  0.26783098  0.83608340  0.39066775    -0.00400
Br444      Br  0.26071020  0.83358670  0.31207157    -0.00500
Br445      Br  0.11341052  0.79657390  0.40383946    -0.00400
Br446      Br  0.11067956  0.79095767  0.32575161    -0.00400
C447        C  0.08386791  0.74963527  0.50446382    -0.01500
C448        C  0.09887467  0.74035482  0.47846402     0.08200
C449        C  0.13113309  0.74634556  0.45728839    -0.01600
C450        C  0.15002391  0.76101411  0.46299994    -0.01600
C451        C  0.13624934  0.77007663  0.48961374     0.08300
C452        C  0.10244909  0.76444444  0.50993183    -0.01800
Br453      Br  0.08322192  0.77652179  0.54652246    -0.00400
Br454      Br  0.03930288  0.74202777  0.53395727    -0.00500
Br455      Br  0.19380835  0.76876655  0.43301055    -0.00400
Br456      Br  0.14776182  0.73500415  0.41892804    -0.00400
C457        C  0.38043037  0.68112930  0.07200068    -0.01500
C458        C  0.38090718  0.69527985  0.05536323     0.08200
C459        C  0.39924903  0.70850524  0.07032195    -0.01600
C460        C  0.41065318  0.70813616  0.10328741    -0.01600
C461        C  0.40430626  0.69440136  0.12113106     0.08300
C462        C  0.39227523  0.68065451  0.10476000    -0.01800
Br463      Br  0.39042771  0.66125925  0.12756082    -0.00400
Br464      Br  0.36083997  0.66261644  0.05005039    -0.00500
Br465      Br  0.42966038  0.72692671  0.12454319    -0.00400
Br466      Br  0.40565234  0.72735648  0.04604964    -0.00400
C467        C  0.04810780  0.79615919  0.09058332    -0.01500
C468        C  0.01373646  0.80730051  0.09069346     0.08200
C469        C  0.00966216  0.81744239  0.11743755    -0.01600
C470        C  0.04003275  0.81663170  0.14323287    -0.01600
C471        C  0.07448399  0.80559607  0.14295504     0.08300
C472        C  0.07812102  0.79526943  0.11668318    -0.01800
Br473      Br  0.12348892  0.77954338  0.11686461    -0.00400
Br474      Br  0.05360300  0.78174173  0.05519558    -0.00500
Br475      Br  0.53670653  0.83137426  0.17792803    -0.00400
Br476      Br  0.46462314  0.83308021  0.11832834    -0.00400
C477        C  0.31294577  0.76848075  0.03897397    -0.01500
C478        C  0.32045046  0.77923959  0.01426901     0.08200
C479        C  0.30692730  0.77575958  0.98269995    -0.01600
C480        C  0.29264755  0.76072250  0.97482555    -0.01600
C481        C  0.28794926  0.74947700  0.99912946     0.08300
C482        C  0.29578780  0.75367008  0.03152687    -0.01800
Br483      Br  0.28934844  0.73850020  0.06515022    -0.00400
Br484      Br  0.32918759  0.77377763  0.08248365    -0.00500
Br485      Br  0.28457109  0.75525193  0.93022015    -0.00400
Br486      Br  0.31234987  0.79127846  0.94961540    -0.00400
C487        C  0.11879544  0.70267416  0.61542276    -0.01500
C488        C  0.10021652  0.69132086  0.63572858     0.08200
C489        C  0.07474310  0.67914319  0.62215440    -0.01600
C490        C  0.06524690  0.67898073  0.58900869    -0.01600
C491        C  0.08226140  0.69067927  0.56906572     0.08300
C492        C  0.11087240  0.70206534  0.58206044    -0.01800
Br493      Br  0.13841602  0.71713721  0.55428351    -0.00400
Br494      Br  0.15170945  0.71992289  0.63323448    -0.00500
Br495      Br  0.53144014  0.66220430  0.57034064    -0.00400
Br496      Br  0.05396031  0.66229836  0.64860367    -0.00400
C497        C  0.18651048  0.71519652  0.84168651    -0.01500
C498        C  0.19740285  0.70409804  0.81804162     0.08200
C499        C  0.23440932  0.69432199  0.82292507    -0.01600
C500        C  0.25830138  0.69493710  0.85226201    -0.01600
C501        C  0.24450533  0.70506486  0.87717284     0.08300
C502        C  0.20991095  0.71571510  0.87094289    -0.01800
Br503      Br  0.19439517  0.73138777  0.90223154    -0.00400
Br504      Br  0.13895095  0.72978996  0.83421961    -0.00500
Br505      Br  0.30801555  0.68118580  0.85858729    -0.00400
Br506      Br  0.24973503  0.67898499  0.79089982    -0.00400
C507        C  0.41156607  0.79614096  0.85580548    -0.01500
C508        C  0.40088548  0.80971128  0.83864211     0.08200
C509        C  0.39742456  0.82389490  0.85525285    -0.01600
C510        C  0.40350629  0.82453727  0.88883020    -0.01600
C511        C  0.41485899  0.81103756  0.90620162     0.08300
C512        C  0.41915200  0.79681143  0.88940761    -0.01800
Br513      Br  0.43431550  0.77813010  0.91226582    -0.00400
Br514      Br  0.41688175  0.77672527  0.83295075    -0.00500
Br515      Br  0.39825779  0.84427461  0.91059438    -0.00400
Br516      Br  0.38502258  0.84260614  0.83159393    -0.00400
C517        C  0.29212699  0.79720227  0.63755577    -0.01500
C518        C  0.32967048  0.80674703  0.64292852     0.08200
C519        C  0.34540973  0.81610864  0.61735931    -0.01600
C520        C  0.32310435  0.81630738  0.58746777    -0.01600
C521        C  0.28482832  0.80714994  0.58252868     0.08300
C522        C  0.27025575  0.79726904  0.60741796    -0.01800
Br523      Br  0.22186117  0.78300954  0.59949604    -0.00400
Br524      Br  0.27133459  0.78349900  0.67086975    -0.00500
Br525      Br  0.34390708  0.82990957  0.55387500    -0.00400
Br526      Br  0.39605586  0.82966149  0.62329009    -0.00400
C527        C  0.02764560  0.76932582  0.74573687    -0.01500
C528        C  0.98530299  0.76942314  0.73102379     0.08200
C529        C  0.46864305  0.75551454  0.71751202    -0.01600
C530        C  0.99194273  0.74158082  0.72068297    -0.01600
C531        C  0.03374770  0.74137382  0.73609455     0.08300
C532        C  0.05232041  0.75545038  0.74739290    -0.01800
Br533      Br  0.11124606  0.75588567  0.76572811    -0.00400
Br534      Br  0.05059499  0.78785406  0.76616923    -0.00500
Br535      Br  0.46920576  0.72291525  0.70062421    -0.00400
Br536      Br  0.41301493  0.75559867  0.69417912    -0.00400
C537        C  0.39277179  0.86992208  0.70739156    -0.01500
C538        C  0.42088142  0.86066985  0.72653005     0.08200
C539        C  0.45339550  0.86780468  0.74590404    -0.01600
C540        C  0.45804093  0.88406220  0.74620194    -0.01600
C541        C  0.42922424  0.89354024  0.72761623     0.08300
C542        C  0.39688088  0.88625290  0.70784651    -0.01800
Br543      Br  0.35968512  0.89834144  0.67960272    -0.00400
Br544      Br  0.34957465  0.86014057  0.67950542    -0.00500
Br545      Br  0.00316952  0.89283302  0.77348990    -0.00400
Br546      Br  0.98910842  0.85521967  0.77421074    -0.00400
C547        C  0.39676325  0.01798691  0.73643766    -0.01500
C548        C  0.35293872  0.02048038  0.74738515     0.08200
C549        C  0.32473293  0.00749725  0.75203435    -0.01600
C550        C  0.34061223  0.99228047  0.74678626    -0.01600
C551        C  0.38462543  0.98981640  0.73615788     0.08300
C552        C  0.41192148  0.00283997  0.72991353    -0.01800
Br553      Br  0.46927023  0.00017127  0.70980563    -0.00400
Br554      Br  0.43645121  0.03525386  0.72909492    -0.00500
Br555      Br  0.30198804  0.97491144  0.75565938    -0.00400
Br556      Br  0.26471278  0.01028694  0.76752523    -0.00400
C557        C  0.19108461  0.88719003  0.18710736    -0.01500
C558        C  0.18534551  0.89459439  0.21703574     0.08200
C559        C  0.18075105  0.88566719  0.24507963    -0.01600
C560        C  0.18014446  0.86939695  0.24308106    -0.01600
C561        C  0.18565939  0.86185671  0.21311997     0.08300
C562        C  0.19122398  0.87083783  0.18508782    -0.01800
Br563      Br  0.19684379  0.86088229  0.14378374    -0.00400
Br564      Br  0.20110151  0.89959692  0.14931252    -0.00500
Br565      Br  0.17252375  0.85749900  0.28189112    -0.00400
Br566      Br  0.17542208  0.89575623  0.28646713    -0.00400
C567        C  0.11819109  0.01205304  0.26783538    -0.01500
C568        C  0.09533316  0.01917295  0.24231997     0.08200
C569        C  0.09073217  0.01126843  0.21268613    -0.01600
C570        C  0.10783280  0.99618798  0.20881364    -0.01600
C571        C  0.13140803  0.98914434  0.23414976     0.08300
C572        C  0.13690278  0.99722931  0.26362412    -0.01800
Br573      Br  0.16867602  0.98791672  0.29906642    -0.00400
Br574      Br  0.12170823  0.02222194  0.30922603    -0.00500
Br575      Br  0.10086355  0.98561628  0.16808815    -0.00400
Br576      Br  0.56373822  0.02149060  0.17635975    -0.00400
C577        C  0.39284330  0.89036910  0.03094031    -0.01500
C578        C  0.43444891  0.89757250  0.02592010     0.08200
C579        C  0.97246758  0.88830563  0.02320627    -0.01600
C580        C  0.46916244  0.87203675  0.02415300    -0.01600
C581        C  0.42676141  0.86481992  0.02471765     0.08300
C582        C  0.38859516  0.87415289  0.02878773    -0.01800
Br583      Br  0.32966628  0.86523468  0.02924201    -0.00400
Br584      Br  0.34152618  0.90269129  0.04241294    -0.00500
Br585      Br  0.02231690  0.85976351  0.02638536    -0.00400
Br586      Br  0.02996671  0.89765894  0.01623956    -0.00400
C587        C  0.41776086  0.95658429  0.85432455    -0.01500
C588        C  0.44599523  0.94544820  0.84010042     0.08200
C589        C  0.96665376  0.93428476  0.85960169    -0.01600
C590        C  0.45753364  0.93378272  0.89280810    -0.01600
C591        C  0.43035822  0.94520413  0.90733282     0.08300
C592        C  0.40993652  0.95650707  0.88776257    -0.01800
Br593      Br  0.37177633  0.97214007  0.90625714    -0.00400
Br594      Br  0.39197785  0.97265638  0.82804647    -0.00500
Br595      Br  0.97856741  0.91633585  0.91760289    -0.00400
Br596      Br  0.00756204  0.91962818  0.84114165    -0.00400
C597        C  0.30528231  0.96201814  0.09699517    -0.01500
C598        C  0.34176151  0.95183573  0.09411179     0.08200
C599        C  0.35042287  0.94112645  0.11906823    -0.01600
C600        C  0.32287505  0.94056784  0.14638317    -0.01600
C601        C  0.28603946  0.95056386  0.14902273     0.08300
C602        C  0.27744786  0.96133162  0.12426656    -0.01800
Br603      Br  0.22847221  0.97564138  0.12828216    -0.00400
Br604      Br  0.29450149  0.97745248  0.06446128    -0.00500
Br605      Br  0.33411886  0.92526145  0.17918880    -0.00400
Br606      Br  0.39827072  0.92626853  0.11525965    -0.00400
C607        C  0.51990997  0.05820349  0.09371371    -0.01500
C608        C  0.05263123  0.06832933  0.08142196     0.08200
C609        C  0.07197659  0.07960600  0.10156021    -0.01600
C610        C  0.06107123  0.08011416  0.13439018    -0.01600
C611        C  0.03247026  0.06881825  0.14772028     0.08300
C612        C  0.51043422  0.05821613  0.12691921    -0.01800
Br613      Br  0.46959572  0.04301105  0.14369093    -0.00400
Br614      Br  0.48967598  0.04374700  0.06554213    -0.00500
Br615      Br  0.08377072  0.09688405  0.16065289    -0.00400
Br616      Br  0.11253204  0.09470753  0.08387099    -0.00400
C617        C  0.20091966  0.05078499  0.88981164    -0.01500
C618        C  0.16689286  0.06170224  0.89525858     0.08200
C619        C  0.15714871  0.07284947  0.87144725    -0.01600
C620        C  0.18209276  0.07333262  0.84287499    -0.01600
C621        C  0.21585139  0.06234266  0.83730954     0.08300
C622        C  0.22496571  0.05099066  0.86078282    -0.01800
Br623      Br  0.26949472  0.03534540  0.85285750    -0.00400
Br624      Br  0.21370364  0.03514274  0.92158702    -0.00500
Br625      Br  0.17261876  0.09000570  0.81275918    -0.00400
Br626      Br  0.11140559  0.08819123  0.87847676    -0.00400
C627        C  0.05836003  0.00939649  0.02341256    -0.01500
C628        C  0.55454061  0.01650633  0.99277380     0.08200
C629        C  0.53388046  0.00839287  0.96736730    -0.01600
C630        C  0.51395586  0.99394130  0.97301797    -0.01600
C631        C  0.51387006  0.98757493  0.00417748     0.08300
C632        C  0.03727140  0.99505614  0.02918418    -0.01800
Br633      Br  0.03694919  0.98635908  0.07184575    -0.00400
Br634      Br  0.08990170  0.01953747  0.05811133    -0.00500
Br635      Br  0.48685594  0.98277050  0.93776903    -0.00400
Br636      Br  0.53380640  0.01683960  0.92442937    -0.00400
C637        C  0.29152449  0.08112426  0.59755459    -0.01500
C638        C  0.31780615  0.06960964  0.58242712     0.08200
C639        C  0.33945559  0.05841572  0.60154006    -0.01600
C640        C  0.33250736  0.05813721  0.63499105    -0.01600
C641        C  0.30565614  0.06944319  0.64995416     0.08300
C642        C  0.28568300  0.08106453  0.63121049    -0.01800
Br643      Br  0.25209296  0.09732555  0.65184909    -0.00400
Br644      Br  0.26589081  0.09771333  0.57260713    -0.00500
Br645      Br  0.35759913  0.04151802  0.66011411    -0.00400
Br646      Br  0.37800232  0.04307735  0.58236536    -0.00400
C647        C  0.44652932  0.06740431  0.39495267    -0.01500
C648        C  0.40728291  0.05851769  0.39738725     0.08200
C649        C  0.39365577  0.04927906  0.37097873    -0.01600
C650        C  0.41806489  0.04935357  0.34209718    -0.01600
C651        C  0.45588030  0.05889500  0.33904237     0.08300
C652        C  0.47021328  0.06784973  0.36576585    -0.01800
Br653      Br  0.02043009  0.08190467  0.36215339    -0.00400
Br654      Br  0.46705238  0.07974896  0.43087375    -0.00500
Br655      Br  0.40041992  0.03582781  0.30723575    -0.00400
Br656      Br  0.34224474  0.03596869  0.37460338    -0.00400
C657        C  0.16802370  0.87124071  0.48203509    -0.01500
C658        C  0.18760379  0.86368031  0.50832580     0.08200
C659        C  0.20493937  0.87241459  0.53417805    -0.01600
C660        C  0.20130644  0.88873538  0.53419725    -0.01600
C661        C  0.18047811  0.89632326  0.50819825     0.08300
C662        C  0.16449263  0.88747413  0.48186015    -0.01800
Br663      Br  0.13960857  0.89747942  0.44441876    -0.00400
Br664      Br  0.14728026  0.85923063  0.44563617    -0.00500
Br665      Br  0.22305770  0.90052606  0.57046352    -0.00400
Br666      Br  0.23310493  0.86193552  0.56962935    -0.00400
C667        C  0.13123571  0.94622892  0.34391752    -0.01500
C668        C  0.17169405  0.94066931  0.33089847     0.08200
C669        C  0.20348370  0.93404395  0.35159452    -0.01600
C670        C  0.19642065  0.93391951  0.38506792    -0.01600
C671        C  0.15746973  0.94058697  0.39844496     0.08300
C672        C  0.12422213  0.94623430  0.37747565    -0.01800
Br673      Br  0.06956913  0.95478644  0.39418090    -0.00400
Br674      Br  0.08552579  0.95463181  0.31626348    -0.00500
Br675      Br  0.23998569  0.92375555  0.41199945    -0.00400
Br676      Br  0.25589593  0.92421767  0.33403634    -0.00400
C677        C  0.05428765  0.96019304  0.64173164    -0.01500
C678        C  0.02152955  0.94872610  0.64669742     0.08200
C679        C  0.01214622  0.93800180  0.62174581    -0.01600
C680        C  0.03545130  0.93867284  0.59239448    -0.01600
C681        C  0.06938141  0.94974693  0.58792924     0.08300
C682        C  0.07877164  0.96048285  0.61279413    -0.01800
Br683      Br  0.12457546  0.97589072  0.60704138    -0.00400
Br684      Br  0.06385672  0.97613079  0.67367682    -0.00500
Br685      Br  0.02287297  0.92360154  0.55910383    -0.00400
Br686      Br  0.46963826  0.92160497  0.62837410    -0.00400
C687        C  0.20874626  0.99828634  0.46398256    -0.01500
C688        C  0.21098289  0.99111598  0.49445651     0.08200
C689        C  0.23158984  0.99892736  0.52024006    -0.01600
C690        C  0.25058721  0.01366590  0.51553084    -0.01600
C691        C  0.24871843  0.02084690  0.48506482     0.08300
C692        C  0.22744088  0.01312718  0.45933884    -0.01800
Br693      Br  0.22623332  0.02240559  0.41724895    -0.00400
Br694      Br  0.18231186  0.98740027  0.42798502    -0.00500
Br695      Br  0.27778360  0.02423277  0.55147422    -0.00400
Br696      Br  0.23170007  0.98980143  0.56254174    -0.00400
C697        C  0.35728322  0.13891719  0.73546539    -0.01500
C698        C  0.34373444  0.14872100  0.76094510     0.08200
C699        C  0.32369878  0.14216120  0.78842473    -0.01600
C700        C  0.31712481  0.12595671  0.79018288    -0.01600
C701        C  0.33136698  0.11625906  0.76483730     0.08300
C702        C  0.35125958  0.12280324  0.73752233    -0.01800
Br703      Br  0.36747301  0.10966547  0.70169609    -0.00400
Br704      Br  0.38097315  0.14746602  0.69622354    -0.00500
Br705      Br  0.28851091  0.11701022  0.82716222    -0.00400
Br706      Br  0.30663854  0.15521779  0.82410659    -0.00400
C707        C  0.30804456  0.25272664  0.71859766    -0.01500
C708        C  0.29785934  0.24225377  0.74371734     0.08200
C709        C  0.26507554  0.24632454  0.76640659    -0.01600
C710        C  0.24209151  0.26049085  0.76373249    -0.01600
C711        C  0.25139319  0.27081740  0.73814043     0.08300
C712        C  0.28432844  0.26674899  0.71548204    -0.01800
Br713      Br  0.29515327  0.27976326  0.67860617    -0.00400
Br714      Br  0.35389327  0.24799290  0.68751934    -0.00500
Br715      Br  0.19931814  0.26578049  0.79664946    -0.00400
Br716      Br  0.25378753  0.23306601  0.80290902    -0.00400
C717        C  0.09134756  0.12091099  0.27118681    -0.01500
C718        C  0.04962365  0.11337485  0.27090300     0.08200
C719        C  0.51024214  0.12240611  0.27501809    -0.01600
C720        C  0.51258399  0.13874658  0.27463510    -0.01600
C721        C  0.55427164  0.14624594  0.27275970     0.08300
C722        C  0.09369793  0.13717385  0.27396567    -0.01800
Br723      Br  0.15086185  0.14676980  0.28170637    -0.00400
Br724      Br  0.14585050  0.10949161  0.26489278    -0.00500
Br725      Br  0.45794148  0.15049361  0.27519976    -0.00400
Br726      Br  0.45308418  0.11267748  0.28210115    -0.00400
C727        C  0.48497891  0.24696302  0.27209516    -0.01500
C728        C  0.51250892  0.24121787  0.24746429     0.08200
C729        C  0.52346004  0.25092048  0.22120582    -0.01600
C730        C  0.50603037  0.26606133  0.21931789    -0.01600
C731        C  0.47792658  0.27171656  0.24376796     0.08300
C732        C  0.46817963  0.26214589  0.27040375    -0.01800
Br733      Br  0.43452873  0.27003900  0.30624060    -0.00400
Br734      Br  0.47249158  0.23445425  0.30952608    -0.00500
Br735      Br  0.51928478  0.27873252  0.18235316    -0.00400
Br736      Br  0.56107265  0.24350952  0.18682009    -0.00400
C737        C  0.16490306  0.32835277  0.86048337    -0.01500
C738        C  0.19310425  0.31874133  0.84222100     0.08200
C739        C  0.22949097  0.31141884  0.85741538    -0.01600
C740        C  0.23608977  0.31296597  0.89086547    -0.01600
C741        C  0.20649503  0.32198110  0.90946796     0.08300
C742        C  0.17216549  0.33026042  0.89375887    -0.01800
Br743      Br  0.13682388  0.34520531  0.91719525    -0.00400
Br744      Br  0.11719266  0.33946047  0.83974719    -0.00500
Br745      Br  0.28491519  0.30209782  0.91085419    -0.00400
Br746      Br  0.26926532  0.29844319  0.83282129    -0.00400
C747        C  0.26393872  0.32288822  0.12971864    -0.01500
C748        C  0.27619353  0.31349620  0.10320998     0.08200
C749        C  0.31165259  0.30294246  0.10660399    -0.01600
C750        C  0.33611070  0.30237704  0.13551893    -0.01600
C751        C  0.32467547  0.31207329  0.16168715     0.08300
C752        C  0.28734661  0.32188179  0.15906122    -0.01800
Br753      Br  0.26932793  0.33466085  0.19497748    -0.00400
Br754      Br  0.21780309  0.33830616  0.12524990    -0.00500
Br755      Br  0.38453148  0.28782155  0.13953831    -0.00400
Br756      Br  0.32596439  0.28877337  0.07209641    -0.00400
C757        C  0.11962066  0.13865986  0.95999556    -0.01500
C758        C  0.08418445  0.14658928  0.97517687     0.08200
C759        C  0.55216765  0.13790516  0.99266779    -0.01600
C760        C  0.55394633  0.12161177  0.99291775    -0.01600
C761        C  0.08864864  0.11377348  0.97711909     0.08300
C762        C  0.12232208  0.12233997  0.96166030    -0.01800
Br763      Br  0.17205817  0.11169603  0.94233957    -0.00400
Br764      Br  0.16380808  0.14980362  0.93568203    -0.00500
Br765      Br  0.51060548  0.10995975  0.01722735    -0.00400
Br766      Br  0.50776288  0.14801340  0.01899769    -0.00400
C767        C  0.07972097  0.18248215  0.09643224    -0.01500
C768        C  0.55107273  0.19308971  0.08081528     0.08200
C769        C  0.52363813  0.20287531  0.09940433    -0.01600
C770        C  0.52510926  0.20212486  0.13324333    -0.01600
C771        C  0.55622107  0.19237473  0.14868624     0.08300
C772        C  0.08259309  0.18231789  0.13017283    -0.01800
Br773      Br  0.12080377  0.16751741  0.15127975    -0.00400
Br774      Br  0.11442569  0.16772000  0.07201996    -0.00500
Br775      Br  0.48487167  0.21478807  0.15811009    -0.00400
Br776      Br  0.48717134  0.21841635  0.07898763    -0.00400
C777        C  0.46668501  0.21461736  0.88007236    -0.01500
C778        C  0.49854448  0.20300333  0.88614628     0.08200
C779        C  0.50961611  0.19232824  0.86155896    -0.01600
C780        C  0.48757033  0.19282438  0.83171194    -0.01600
C781        C  0.45418117  0.20394167  0.82625731     0.08300
C782        C  0.44458174  0.21507488  0.85019545    -0.01800
Br783      Br  0.40163363  0.23118701  0.84168576    -0.00400
Br784      Br  0.45413437  0.23021889  0.91214928    -0.00500
Br785      Br  0.50068052  0.17736103  0.79938953    -0.00400
Br786      Br  0.05264136  0.17596727  0.86935077    -0.00400
C787        C  0.12373952  0.24758518  0.02088276    -0.01500
C788        C  0.12721104  0.24101737  0.98985779     0.08200
C789        C  0.14643267  0.24961478  0.96479386    -0.01600
C790        C  0.15982862  0.26504540  0.97032534    -0.01600
C791        C  0.15546306  0.27173534  0.00124708     0.08300
C792        C  0.13808636  0.26286862  0.02661868    -0.01800
Br793      Br  0.13592597  0.27136159  0.06958102    -0.00400
Br794      Br  0.10127944  0.23532997  0.05603362    -0.00500
Br795      Br  0.18135047  0.27731070  0.93487412    -0.00400
Br796      Br  0.15307055  0.24045087  0.92267342    -0.00400
C797        C  0.26225349  0.12235640  0.45605979    -0.01500
C798        C  0.30347883  0.11460200  0.45805137     0.08200
C799        C  0.34313922  0.12342439  0.45544015    -0.01600
C800        C  0.34178674  0.13975517  0.45534759    -0.01600
C801        C  0.30054190  0.14753270  0.45587058     0.08300
C802        C  0.26094834  0.13865975  0.45360915    -0.01800
Br803      Br  0.20453143  0.14864770  0.44555061    -0.00400
Br804      Br  0.20691502  0.11107959  0.45921270    -0.00500
Br805      Br  0.39724398  0.15113023  0.45633517    -0.00400
Br806      Br  0.40013869  0.11337601  0.45105462    -0.00400
C807        C  0.35783992  0.18405035  0.58892097    -0.01500
C808        C  0.32171630  0.19303000  0.57743085     0.08200
C809        C  0.29989583  0.20323496  0.59886725    -0.01600
C810        C  0.31309486  0.20408351  0.63126118    -0.01600
C811        C  0.34974432  0.19543767  0.64239872     0.08300
C812        C  0.37299723  0.18579939  0.62089834    -0.01800
Br813      Br  0.42496888  0.17475640  0.63538695    -0.00400
Br814      Br  0.38413597  0.16819746  0.56217632    -0.00500
Br815      Br  0.28131544  0.21763164  0.66034525    -0.00400
Br816      Br  0.25311391  0.21683514  0.58423900    -0.00400
C817        C  0.14499025  0.21087831  0.36035243    -0.01500
C818        C  0.15949843  0.20249243  0.33296216     0.08200
C819        C  0.20050752  0.19456858  0.33427298    -0.01600
C820        C  0.22505621  0.19414915  0.36316451    -0.01600
C821        C  0.21016400  0.20231738  0.39072757     0.08300
C822        C  0.17040998  0.21091879  0.38891517    -0.01800
Br823      Br  0.15125802  0.22328025  0.42513594    -0.00400
Br824      Br  0.09093822  0.22293940  0.35875635    -0.00500
Br825      Br  0.27706089  0.18100440  0.36528877    -0.00400
Br826      Br  0.22262838  0.18343143  0.29719189    -0.00400
C827        C  0.46052140  0.32873770  0.39489342    -0.01500
C828        C  0.43871503  0.31759137  0.41381505     0.08200
C829        C  0.40832993  0.30725137  0.39908585    -0.01600
C830        C  0.39916480  0.30821709  0.36590321    -0.01600
C831        C  0.42145540  0.31924380  0.34684855     0.08300
C832        C  0.45162991  0.32965833  0.36166130    -0.01800
Br833      Br  0.47877142  0.34597805  0.33690940    -0.00400
Br834      Br  0.00232639  0.34290202  0.41447481    -0.00500
Br835      Br  0.35706533  0.29398810  0.34674274    -0.00400
Br836      Br  0.38191786  0.29079598  0.42383657    -0.00400
C837        C  0.52090121  0.31626473  0.62987722    -0.01500
C838        C  0.03537675  0.30886403  0.60125794     0.08200
C839        C  0.07614184  0.30077707  0.60143365    -0.01600
C840        C  0.10259610  0.30044941  0.62951496    -0.01600
C841        C  0.08868480  0.30822424  0.65774676     0.08300
C842        C  0.04740797  0.31595991  0.65786459    -0.01800
Br843      Br  0.52817957  0.32716103  0.69563742    -0.00400
Br844      Br  0.46618188  0.32802142  0.63078850    -0.00500
Br845      Br  0.15741177  0.28880704  0.62955624    -0.00400
Br846      Br  0.09533486  0.28953709  0.56373975    -0.00400
C847        C  0.33696056  0.27072467  0.49917521    -0.01500
C848        C  0.38022205  0.27144774  0.51235232     0.08200
C849        C  0.40380252  0.25758710  0.51791968    -0.01600
C850        C  0.38569975  0.24322309  0.50846381    -0.01600
C851        C  0.34336572  0.24250478  0.49376282     0.08300
C852        C  0.31862734  0.25631091  0.48989364    -0.01800
Br853      Br  0.26055065  0.25578487  0.47006408    -0.00400
Br854      Br  0.30333021  0.28948854  0.49209366    -0.00500
Br855      Br  0.41861297  0.22449274  0.51732196    -0.00400
Br856      Br  0.46023226  0.25813257  0.54025253    -0.00400
C857        C  0.13815169  0.39059811  0.04053722    -0.01500
C858        C  0.16696058  0.40011244  0.02257244     0.08200
C859        C  0.19909687  0.39331234  0.00248803    -0.01600
C860        C  0.20354082  0.37709741  0.00114932    -0.01600
C861        C  0.17618063  0.36747821  0.02039956     0.08300
C862        C  0.14286239  0.37433762  0.03966979    -0.01800
Br863      Br  0.10423709  0.36173367  0.06581225    -0.00400
Br864      Br  0.09264102  0.39989361  0.06694908    -0.00500
Br865      Br  0.24515321  0.36830264  0.97067116    -0.00400
Br866      Br  0.23486080  0.40620849  0.97474185    -0.00400
C867        C  0.24601540  0.62802627  0.95735079    -0.01500
C868        C  0.25142059  0.62071476  0.98731393     0.08200
C869        C  0.25021509  0.62968490  0.01579946    -0.01600
C870        C  0.24423045  0.64585513  0.01424657    -0.01600
C871        C  0.24422021  0.65329575  0.98419911     0.08300
C872        C  0.24299178  0.64429702  0.95581510    -0.01800
Br873      Br  0.23820680  0.65444108  0.91470809    -0.00400
Br874      Br  0.24855368  0.61600247  0.91820224    -0.00500
Br875      Br  0.23794279  0.65780639  0.05326182    -0.00400
Br876      Br  0.26056115  0.62008143  0.05692262    -0.00400
C877        C  0.17856591  0.50551481  0.98220127    -0.01500
C878        C  0.19095109  0.49703927  0.00994386     0.08200
C879        C  0.21792021  0.50416538  0.03351005    -0.01600
C880        C  0.23358415  0.51935189  0.02894228    -0.01600
C881        C  0.22411190  0.52735929  0.00015929     0.08300
C882        C  0.19591363  0.52050083  0.97704798    -0.01800
Br883      Br  0.18323278  0.53115309  0.93736184    -0.00400
Br884      Br  0.13924460  0.49659934  0.95025947    -0.00500
Br885      Br  0.26600132  0.52948254  0.06331772    -0.00400
Br886      Br  0.23197789  0.49350433  0.07303327    -0.00400
C887        C  0.34785140  0.62886373  0.28544206    -0.01500
C888        C  0.32230265  0.62002293  0.26351719     0.08200
C889        C  0.30677337  0.62716466  0.23499735    -0.01600
C890        C  0.31582701  0.64295170  0.22892144    -0.01600
C891        C  0.34149049  0.65173385  0.25076800     0.08300
C892        C  0.35739788  0.64461468  0.27907412    -0.01800
Br893      Br  0.39088773  0.65665214  0.30990581    -0.00400
Br894      Br  0.36889520  0.61957367  0.32472071    -0.00500
Br895      Br  0.29520865  0.65233609  0.18954370    -0.00400
Br896      Br  0.27651613  0.61506137  0.20243227    -0.00400
C897        C  0.32303282  0.56430549  0.11830228    -0.01500
C898        C  0.28820480  0.57112180  0.10031675     0.08200
C899        C  0.25028556  0.57676495  0.11702437    -0.01600
C900        C  0.24697127  0.57530108  0.15071330    -0.01600
C901        C  0.28283804  0.56934249  0.16865252     0.08300
C902        C  0.32083521  0.56378725  0.15216884    -0.01800
Br903      Br  0.36997829  0.55470818  0.17561236    -0.00400
Br904      Br  0.37341949  0.55480874  0.09720517    -0.00500
Br905      Br  0.19328364  0.58204804  0.17206257    -0.00400
Br906      Br  0.20324229  0.58769789  0.09492231    -0.00400
C907        C  0.47403398  0.39018964  0.24782093    -0.01500
C908        C  0.44082595  0.39918645  0.23211135     0.08200
C909        C  0.40932192  0.39145749  0.21237812    -0.01600
C910        C  0.40867686  0.37511091  0.21075192    -0.01600
C911        C  0.44070406  0.36630458  0.22736267     0.08300
C912        C  0.47497011  0.37394325  0.24410065    -0.01800
Br913      Br  0.52273217  0.36210112  0.26291937    -0.00400
Br914      Br  0.51642575  0.39941067  0.27735790    -0.00500
Br915      Br  0.86463551  0.36462488  0.18465543    -0.00400
Br916      Br  0.86762931  0.40295061  0.18625629    -0.00400
C917        C  0.04352504  0.46452471  0.11082350    -0.01500
C918        C  0.07942852  0.45412635  0.10756981     0.08200
C919        C  0.09198425  0.44487621  0.13409277    -0.01600
C920        C  0.06718226  0.44537581  0.16279799    -0.01600
C921        C  0.02997039  0.45524672  0.16541721     0.08300
C922        C  0.01848131  0.46489884  0.13939736    -0.01800
Br923      Br  0.46842892  0.47878501  0.14300378    -0.00400
Br924      Br  0.53003535  0.47901742  0.07706017    -0.00500
Br925      Br  0.08195300  0.43137253  0.19738458    -0.00400
Br926      Br  0.14177886  0.43081007  0.13107583    -0.00400
C927        C  0.35377500  0.50078701  0.23301076    -0.01500
C928        C  0.37994525  0.49398999  0.25728891     0.08200
C929        C  0.38665929  0.50212287  0.28653653    -0.01600
C930        C  0.36996665  0.51728522  0.29057523    -0.01600
C931        C  0.34462512  0.52423614  0.26600675     0.08300
C932        C  0.33506358  0.51561300  0.23772576    -0.01800
Br933      Br  0.29662711  0.52395470  0.20481299    -0.00400
Br934      Br  0.34565300  0.49025940  0.19234575    -0.00500
Br935      Br  0.37906169  0.52804462  0.33087122    -0.00400
Br936      Br  0.41591450  0.49210122  0.32225998    -0.00400
C937        C  0.00536328  0.63646871  0.48124456    -0.01500
C938        C  0.03827886  0.64401194  0.46234602     0.08200
C939        C  0.06916927  0.63479438  0.44509519    -0.01600
C940        C  0.07087878  0.61868736  0.45010253    -0.01600
C941        C  0.04098769  0.61157921  0.47140911     0.08300
C942        C  0.00692271  0.62030078  0.48560461    -0.01800
Br943      Br  0.96424041  0.61013995  0.51302172    -0.00400
Br944      Br  0.95873801  0.64774976  0.50302883    -0.00500
Br945      Br  0.11414233  0.60616566  0.42760403    -0.00400
Br946      Br  0.10836789  0.64376442  0.41344400    -0.00400
C947        C  0.15459553  0.55241651  0.39281616    -0.01500
C948        C  0.16497885  0.56109539  0.42078297     0.08200
C949        C  0.20199082  0.57121575  0.42015813    -0.01600
C950        C  0.22582632  0.57357733  0.39127963    -0.01600
C951        C  0.21413131  0.56538612  0.36289494     0.08300
C952        C  0.17925504  0.55441770  0.36426705    -0.01800
Br953      Br  0.16632336  0.54139339  0.32752331    -0.00400
Br954      Br  0.10753962  0.53715015  0.39383494    -0.00500
Br955      Br  0.27234622  0.58902442  0.39036310    -0.00400
Br956      Br  0.21929897  0.58254678  0.45835679    -0.00400
C957        C  0.38714583  0.37070160  0.51637147    -0.01500
C958        C  0.41905163  0.36396682  0.53665365     0.08200
C959        C  0.44496014  0.37349656  0.55697683    -0.01600
C960        C  0.43930464  0.38974367  0.55680044    -0.01600
C961        C  0.40910211  0.39667878  0.53500163     0.08300
C962        C  0.38295189  0.38692578  0.51481505    -0.01800
Br963      Br  0.84478591  0.39525078  0.48183848    -0.00400
Br964      Br  0.85190339  0.35760048  0.48837503    -0.00500
Br965      Br  0.47239069  0.40219030  0.58729059    -0.00400
Br966      Br  0.48815966  0.36423765  0.58531893    -0.00400
C967        C  0.39408437  0.43420948  0.39702383    -0.01500
C968        C  0.42046109  0.44294522  0.41839872     0.08200
C969        C  0.45826441  0.45086325  0.40662682    -0.01600
C970        C  0.46739766  0.45108041  0.37339110    -0.01600
C971        C  0.43918778  0.44311981  0.35162486     0.08300
C972        C  0.40388919  0.43401080  0.36395588    -0.01800
Br973      Br  0.37029909  0.42023247  0.33620566    -0.00400
Br974      Br  0.34579446  0.42175137  0.41316364    -0.00500
Br975      Br  0.01775580  0.46295351  0.35823985    -0.00400
Br976      Br  0.99706782  0.46207897  0.43559395    -0.00400
C977        C  0.44893979  0.50046994  0.48605027    -0.01500
C978        C  0.95675028  0.49180912  0.51423242     0.08200
C979        C  0.98340938  0.49828165  0.53877501    -0.01600
C980        C  0.00306272  0.51294799  0.53461129    -0.01600
C981        C  0.99695432  0.52120957  0.50567447     0.08300
C982        C  0.96850566  0.51514973  0.48177360    -0.01800
Br983      Br  0.45738176  0.52676141  0.44318079    -0.00400
Br984      Br  0.41316910  0.49201902  0.45145496    -0.00500
Br985      Br  0.03546809  0.52226589  0.56990153    -0.00400
Br986      Br  0.99137796  0.48753627  0.57903546    -0.00400
C987        C  0.03753190  0.62852044  0.79368614    -0.01500
C988        C  0.05623766  0.61700778  0.77380685     0.08200
C989        C  0.08301891  0.62137359  0.74770937    -0.01600
C990        C  0.09211853  0.63711965  0.74190525    -0.01600
C991        C  0.07293857  0.64879462  0.76155696     0.08300
C992        C  0.04559785  0.64435431  0.78758786    -0.01800
Br993      Br  0.02061796  0.65975351  0.81613289    -0.00400
Br994      Br  0.00136343  0.62261098  0.82966219    -0.00500
Br995      Br  0.12961603  0.64230398  0.70583860    -0.00400
Br996      Br  0.10458626  0.60570122  0.71831047    -0.00400
C997        C  0.07571856  0.55825527  0.65852068    -0.01500
C998        C  0.04262677  0.56791365  0.67199687     0.08200
C999        C  0.01974371  0.57834519  0.65201920    -0.01600
C1000       C  0.02924675  0.57898340  0.61885253    -0.01600
C1001       C  0.06152682  0.56902840  0.60501369     0.08300
C1002       C  0.08540583  0.55888356  0.62532897    -0.01800
Br1003     Br  0.13027022  0.54520659  0.60801475    -0.00400
Br1004     Br  0.10590299  0.54324903  0.68505168    -0.00500
Br1005     Br  0.99937988  0.59434619  0.59308473    -0.00400
Br1006     Br  0.47732531  0.59229596  0.67063793    -0.00400
C1007       C  0.40176976  0.55598862  0.86281404    -0.01500
C1008       C  0.93639076  0.56657294  0.85941742     0.08200
C1009       C  0.94524732  0.57711911  0.88483409    -0.01600
C1010       C  0.41815663  0.57778242  0.91214785    -0.01600
C1011       C  0.38217050  0.56739870  0.91504512     0.08300
C1012       C  0.37500147  0.55618983  0.89069624    -0.01800
Br1013     Br  0.33067352  0.54027128  0.89670786    -0.00400
Br1014     Br  0.89026642  0.54054562  0.82976429    -0.00500
Br1015     Br  0.42810843  0.59354307  0.94454508    -0.00400
Br1016     Br  0.99489037  0.59122710  0.88254036    -0.00400
C1017       C  0.20856127  0.37360176  0.71053739    -0.01500
C1018       C  0.17460778  0.36486440  0.72578922     0.08200
C1019       C  0.13781758  0.37307635  0.73922935    -0.01600
C1020       C  0.13676088  0.38943411  0.73910814    -0.01600
C1021       C  0.17287051  0.39797105  0.72697529     0.08300
C1022       C  0.20845710  0.38997313  0.71225540    -0.01800
Br1023     Br  0.25740036  0.40143461  0.69378616    -0.00400
Br1024     Br  0.25444442  0.36361908  0.68538164    -0.00500
Br1025     Br  0.08657990  0.40014712  0.75788948    -0.00400
Br1026     Br  0.08805082  0.36266157  0.75937667    -0.00400
C1027       C  0.16107563  0.43271124  0.86455587    -0.01500
C1028       C  0.18720164  0.44401779  0.84883727     0.08200
C1029       C  0.20833658  0.45569497  0.86729933    -0.01600
C1030       C  0.20081099  0.45664226  0.90067498    -0.01600
C1031       C  0.17163162  0.44611250  0.91573082     0.08300
C1032       C  0.15305909  0.43384246  0.89781220    -0.01800
Br1033     Br  0.11880281  0.41803392  0.91931027    -0.00400
Br1034     Br  0.13813378  0.41507811  0.84103657    -0.00500
Br1035     Br  0.22958259  0.47277307  0.92547607    -0.00400
Br1036     Br  0.24582650  0.47102166  0.84714332    -0.00400
C1037       C  0.24559326  0.44408527  0.63220946    -0.01500
C1038       C  0.25613131  0.45471485  0.65710223     0.08200
C1039       C  0.29066431  0.46554449  0.65252889    -0.01600
C1040       C  0.31579862  0.46527256  0.62394736    -0.01600
C1041       C  0.30686829  0.45406285  0.59992652     0.08300
C1042       C  0.27141146  0.44357168  0.60406396    -0.01800
Br1043     Br  0.26090179  0.42733208  0.57278158    -0.00400
Br1044     Br  0.19741930  0.42940466  0.63698813    -0.00500
Br1045     Br  0.36200058  0.48048847  0.61747255    -0.00400
Br1046     Br  0.30232123  0.48119351  0.68475930    -0.00400
C1047       C  0.07056422  0.49384960  0.76360827    -0.01500
C1048       C  0.11634591  0.49236982  0.75634462     0.08200
C1049       C  0.14298787  0.50593636  0.75559007    -0.01600
C1050       C  0.12519989  0.52046515  0.76425308    -0.01600
C1051       C  0.07952910  0.52195077  0.77143439     0.08300
C1052       C  0.05223124  0.50855638  0.77062044    -0.01800
Br1053     Br  0.98944161  0.51004581  0.78022659    -0.00400
Br1054     Br  0.03215794  0.47588638  0.76473969    -0.00500
Br1055     Br  0.16391490  0.53841101  0.76432913    -0.00400
Br1056     Br  0.20323286  0.50524076  0.73939129    -0.00400
O1057       O  0.64276244  0.42397537  0.72723924    -0.57500
C1058       C  0.63824381  0.47672050  0.75166010     0.75100
O1059       O  0.72325941  0.44753491  0.79714476    -0.58600
C1060       C  0.67550945  0.41491718  0.73221953     0.75100
C1061       C  0.73232658  0.45368181  0.68808388     0.77500
Cd1062     Cd  0.68342507  0.44752758  0.74521879     1.37500
O1063       O  0.61808309  0.46508656  0.73945090    -0.57500
O1064       O  0.69032576  0.45277117  0.68858992    -0.56300
C1065       C  0.68836770  0.44439918  0.81322860     0.77500
O1066       O  0.75239950  0.45300021  0.71505460    -0.58700
O1067       O  0.67819318  0.47446705  0.76013991    -0.57100
O1068       O  0.71077134  0.42110105  0.74295424    -0.57100
O1069       O  0.65281105  0.44222015  0.79738369    -0.56300
O1070       O  0.58044997  0.54856565  0.79094023    -0.57500
C1071       C  0.54582913  0.60042114  0.77784877     0.75100
O1072       O  0.49654094  0.56693247  0.71963061    -0.58600
C1073       C  0.56073336  0.53758833  0.77598595     0.75100
C1074       C  0.46599028  0.56647062  0.83035131     0.77500
Cd1075     Cd  0.52455193  0.56812582  0.77570830     1.37500
O1076       O  0.57436275  0.59036519  0.78659082    -0.57500
O1077       O  0.50798929  0.56679217  0.83286712    -0.56300
C1078       C  0.53539922  0.56786000  0.70740450     0.77500
O1079       O  0.45020888  0.56632568  0.80185783    -0.58700
O1080       O  0.50742817  0.59554548  0.77029772    -0.57100
O1081       O  0.52353151  0.54082912  0.76335115    -0.57100
O1082       O  0.56774550  0.56903093  0.72684056    -0.56300
O1083       O  0.45788288  0.46476302  0.52989348    -0.57500
C1084       C  0.90576881  0.41388983  0.53215461     0.75100
O1085       O  0.82265165  0.45127943  0.54315843    -0.58600
C1086       C  0.93639034  0.47625113  0.51831002     0.75100
C1087       C  0.90988215  0.44338916  0.45299934     0.77500
Cd1088     Cd  0.89647537  0.44639129  0.52032140     1.37500
O1089       O  0.93844196  0.42305298  0.53689110    -0.57500
O1090       O  0.94007406  0.44092081  0.47357638    -0.56300
C1091       C  0.83710562  0.45220018  0.57196003     0.77500
O1092       O  0.87113864  0.44650401  0.46367987    -0.58700
O1093       O  0.86942258  0.42015905  0.52394514    -0.57100
O1094       O  0.89643403  0.47381246  0.51001857    -0.57100
O1095       O  0.87875797  0.45093894  0.57617347    -0.56300
O1096       O  0.50269083  0.54830088  0.49172137    -0.57500
C1097       C  0.54869650  0.59547035  0.48158941     0.75100
O1098       O  0.60394462  0.56600981  0.55511476    -0.58600
C1099       C  0.52164353  0.53594030  0.50095353     0.75100
C1100       C  0.63398493  0.56106086  0.44872481     0.77500
Cd1101     Cd  0.56959985  0.56462481  0.50003060     1.37500
O1102       O  0.52080984  0.58465036  0.47655027    -0.57500
O1103       O  0.59243885  0.56159459  0.44415869    -0.56300
C1104       C  0.56703828  0.56817069  0.56936844     0.77500
O1105       O  0.64668237  0.56108814  0.47796220    -0.58700
O1106       O  0.58440408  0.59196427  0.49589456    -0.57100
O1107       O  0.56286275  0.53681676  0.50693693    -0.57100
O1108       O  0.53327070  0.56915389  0.55139058    -0.56300
O1109       O  0.90490716  0.42471221  0.23399885    -0.57500
C1110       C  0.90154099  0.47873378  0.25208261     0.75100
O1111       O  0.48044594  0.44735258  0.30197836    -0.58600
C1112       C  0.94008433  0.41650195  0.23607582     0.75100
C1113       C  0.50099743  0.45437359  0.19426438     0.77500
Cd1114     Cd  0.94509824  0.44929155  0.24805458     1.37500
O1115       O  0.88078781  0.46696854  0.24088961    -0.57500
O1116       O  0.95950315  0.45226055  0.19119167    -0.56300
C1117       C  0.94347784  0.44521819  0.31604609     0.77500
O1118       O  0.51656590  0.45521681  0.22274291    -0.58700
O1119       O  0.94214440  0.47681694  0.25927454    -0.57100
O1120       O  0.97547812  0.42380849  0.24238814    -0.57100
O1121       O  0.90913083  0.44509103  0.29842913    -0.56300
O1122       O  0.85083846  0.55171252  0.27909472    -0.57500
C1123       C  0.81182222  0.60346527  0.26984584     0.75100
O1124       O  0.74839855  0.56721938  0.22153445    -0.58600
C1125       C  0.82677645  0.54027172  0.27017866     0.75100
C1126       C  0.73932193  0.56792621  0.33218570     0.77500
Cd1127     Cd  0.78948997  0.57091436  0.27298842     1.37500
O1128       O  0.84108327  0.59354397  0.27804941    -0.57500
O1129       O  0.78139423  0.56885964  0.33181227    -0.56300
C1130       C  0.78261777  0.57002079  0.20441802     0.77500
O1131       O  0.71992216  0.56894219  0.30500622    -0.58700
O1132       O  0.77251931  0.59840555  0.26616357    -0.57100
O1133       O  0.78631601  0.54314241  0.26437950    -0.57100
O1134       O  0.81782008  0.57353224  0.21946748    -0.56300
O1135       O  0.72270806  0.55467522  0.98615281    -0.57500
C1136       C  0.76248578  0.60410551  0.98879975     0.75100
O1137       O  0.82553372  0.57220671  0.04827247    -0.58600
C1138       C  0.74429067  0.54268827  0.99467134     0.75100
C1139       C  0.85014304  0.56864968  0.94251119     0.77500
Cd1140     Cd  0.78755575  0.57215005  0.99480020     1.37500
O1141       O  0.73674378  0.59349864  0.97839658    -0.57500
O1142       O  0.80853070  0.56922706  0.93801301    -0.56300
C1143       C  0.78951175  0.57173900  0.06423924     0.77500
O1144       O  0.86332490  0.56950772  0.97152743    -0.58700
O1145       O  0.79910280  0.59983696  0.00078946    -0.57100
O1146       O  0.78545696  0.54440693  0.99991024    -0.57100
O1147       O  0.75424583  0.57158177  0.04770798    -0.56300
O1148       O  0.70298165  0.47029074  0.02319808    -0.57500
C1149       C  0.66092108  0.41711605  0.02239469     0.75100
O1150       O  0.58189430  0.45191581  0.04969152    -0.58600
C1151       C  0.67585376  0.48075193  0.01391610     0.75100
C1152       C  0.66272897  0.44728979  0.95053489     0.77500
Cd1153     Cd  0.64923213  0.44945644  0.01740233     1.37500
O1154       O  0.69264154  0.42633567  0.02980933    -0.57500
O1155       O  0.69468532  0.44716930  0.97053554    -0.56300
C1156       C  0.60287366  0.45268781  0.07638279     0.77500
O1157       O  0.62323531  0.44840186  0.96165668    -0.58700
O1158       O  0.62409504  0.42304941  0.01394757    -0.57100
O1159       O  0.63619376  0.47656227  0.00777289    -0.57100
O1160       O  0.64507945  0.45211304  0.07521230    -0.56300
O1161       O  0.90015641  0.33678105  0.53712458    -0.57500
C1162       C  0.90329421  0.28652423  0.51658630     0.75100
O1163       O  0.98190968  0.31561996  0.46310528    -0.58600
C1164       C  0.92937280  0.34724836  0.53295338     0.75100
C1165       C  0.00754743  0.30985367  0.57162813     0.77500
Cd1166     Cd  0.94872799  0.31548463  0.51832548     1.37500
O1167       O  0.88480945  0.29831176  0.52929257    -0.57500
O1168       O  0.96574123  0.30858012  0.57324626    -0.56300
C1169       C  0.94443104  0.31742197  0.44926598     0.77500
O1170       O  0.02358900  0.31262942  0.54389935    -0.58700
O1171       O  0.94269364  0.28827340  0.50649092    -0.57100
O1172       O  0.96721439  0.34286867  0.52334386    -0.57100
O1173       O  0.91090856  0.31892506  0.46730988    -0.56300
O1174       O  0.84699885  0.21683564  0.47014002    -0.57500
C1175       C  0.79809867  0.16457733  0.46178631     0.75100
O1176       O  0.76965883  0.19435361  0.53282609    -0.58600
C1177       C  0.82427900  0.22718378  0.48475803     0.75100
C1178       C  0.73646042  0.20163767  0.42109758     0.77500
Cd1179     Cd  0.79049875  0.19673726  0.47622982     1.37500
O1180       O  0.82783471  0.17411699  0.45242628    -0.57500
O1181       O  0.77860199  0.20229909  0.42035754    -0.56300
C1182       C  0.80977253  0.19293884  0.54259784     0.77500
O1183       O  0.71844853  0.19989302  0.44864305    -0.58700
O1184       O  0.76607787  0.17022814  0.47779739    -0.57100
O1185       O  0.78483689  0.22360292  0.49283046    -0.57100
O1186       O  0.83976410  0.19222267  0.52116255    -0.56300
O1187       O  0.62889171  0.21412706  0.97350613    -0.57500
C1188       C  0.57931550  0.16380388  0.97320293     0.75100
O1189       O  0.01913864  0.19605802  0.02740926    -0.58600
C1190       C  0.60671456  0.22575862  0.98354884     0.75100
C1191       C  0.02054924  0.20166282  0.91791314     0.77500
Cd1192     Cd  0.06464217  0.19655141  0.97759880     1.37500
O1193       O  0.61223862  0.17309924  0.97314553    -0.57500
O1194       O  0.06239025  0.20028304  0.92017639    -0.56300
C1195       C  0.05337328  0.19459852  0.04529408     0.77500
O1196       O  0.99839276  0.20130797  0.94397518    -0.58700
O1197       O  0.04140842  0.16993519  0.97249464    -0.57100
O1198       O  0.06583541  0.22375107  0.98889504    -0.57100
O1199       O  0.59051561  0.19446782  0.03149328    -0.56300
O1200       O  0.64598765  0.29827385  0.01845568    -0.57500
C1201       C  0.68348840  0.35046038  0.02015336     0.75100
O1202       O  0.77204255  0.31563591  0.04521293    -0.58600
C1203       C  0.67119157  0.28770531  0.00710588     0.75100
C1204       C  0.70753939  0.32130966  0.94514226     0.71100
Cd1205     Cd  0.70344683  0.31843630  0.01337169     1.37500
O1206       O  0.65211243  0.34052137  0.02136527    -0.57500
O1207       O  0.67147876  0.32081675  0.96075781    -0.56300
C1208       C  0.75189459  0.31477782  0.07208712     0.77500
O1209       O  0.74336960  0.32074369  0.96157756    -0.58700
O1210       O  0.72261450  0.34517871  0.01812798    -0.57100
O1211       O  0.71090071  0.29141228  0.00043091    -0.57100
O1212       O  0.70974166  0.31520668  0.07126331    -0.56300
O1213       O  0.00827879  0.21375509  0.25825009    -0.57500
C1214       C  0.05823882  0.16326249  0.26614374     0.75100
O1215       O  0.59980802  0.19485957  0.19712062    -0.58600
C1216       C  0.03143253  0.22546278  0.24988545     0.75100
C1217       C  0.62978945  0.20067137  0.30450050     0.77500
Cd1218     Cd  0.57007820  0.19539450  0.25192022     1.37500
O1219       O  0.02988689  0.17320895  0.27576840    -0.57500
O1220       O  0.58843453  0.19851205  0.30817477    -0.56300
C1221       C  0.56182030  0.19289511  0.18402310     0.77500
O1222       O  0.64400537  0.20075992  0.27564990    -0.58700
O1223       O  0.59014848  0.16839428  0.24982183    -0.57100
O1224       O  0.07210448  0.22308401  0.24389326    -0.57100
O1225       O  0.02870845  0.19157395  0.20249368    -0.56300
O1226       O  0.96330096  0.33934368  0.22457288    -0.57500
C1227       C  0.95743679  0.28740349  0.24144721     0.75100
O1228       O  0.88037835  0.31778360  0.29651216    -0.58600
C1229       C  0.93388334  0.34943641  0.23136962     0.75100
C1230       C  0.85465286  0.31324465  0.18996510     0.77500
Cd1231     Cd  0.91569835  0.31723644  0.24244071     1.37500
O1232       O  0.97928970  0.29944572  0.23350500    -0.57500
O1233       O  0.89615910  0.31482677  0.18609608    -0.56300
C1234       C  0.91741788  0.31888343  0.31124300     0.77500
O1235       O  0.84068095  0.31309420  0.21883645    -0.58700
O1236       O  0.91671375  0.28932590  0.24792554    -0.57100
O1237       O  0.89761253  0.34447297  0.24274684    -0.57100
O1238       O  0.95194886  0.31938180  0.29397848    -0.56300
O1239       O  0.71330335  0.33964150  0.72320963    -0.57500
C1240       C  0.72714872  0.28571692  0.73560460     0.75100
O1241       O  0.64971451  0.31306273  0.79420443    -0.58600
C1242       C  0.67792460  0.34733966  0.72865181     0.75100
C1243       C  0.61913401  0.30939784  0.68579925     0.77500
Cd1244     Cd  0.67884368  0.31433477  0.73838588     1.37500
O1245       O  0.74594065  0.29839773  0.72769503    -0.57500
O1246       O  0.65969790  0.31296121  0.68191544    -0.56300
C1247       C  0.68666968  0.31705501  0.80686611     0.77500
O1248       O  0.60605666  0.30742350  0.71465982    -0.58700
O1249       O  0.68614179  0.28647538  0.74231597    -0.57100
O1250       O  0.64495799  0.33937986  0.73768984    -0.57100
O1251       O  0.71850206  0.31978081  0.78784155    -0.56300
O1252       O  0.82072543  0.17553468  0.76403868    -0.57500
C1253       C  0.82128596  0.22698179  0.74595131     0.75100
O1254       O  0.94059253  0.20183339  0.76899092    -0.58600
C1255       C  0.85098241  0.16563438  0.75804581     0.75100
C1256       C  0.85936512  0.19527083  0.67722252     0.77500
Cd1257     Cd  0.86626443  0.19772939  0.74534479     1.37500
O1258       O  0.80088463  0.21451221  0.75294912    -0.57500
O1259       O  0.82839222  0.19195651  0.69649048    -0.56300
C1260       C  0.92552630  0.20251292  0.79758226     0.77500
O1261       O  0.89683270  0.19896492  0.68944158    -0.58700
O1262       O  0.86251383  0.22578294  0.74045903    -0.57100
O1263       O  0.88780472  0.17086791  0.74807032    -0.57100
O1264       O  0.88381032  0.20145028  0.80111903    -0.56300
O1265       O  0.70260002  0.92324730  0.51520172    -0.57500
C1266       C  0.69132837  0.97558447  0.49922042     0.75100
O1267       O  0.61686953  0.94191968  0.44919307    -0.58600
C1268       C  0.67247512  0.91329228  0.50872376     0.75100
C1269       C  0.59735318  0.94921699  0.55849416     0.77500
Cd1270     Cd  0.65275213  0.94549489  0.50272672     1.37500
O1271       O  0.71368728  0.96424441  0.51031777    -0.57500
O1272       O  0.63922698  0.94783774  0.56046758    -0.56300
C1273       C  0.65365821  0.94245213  0.43406494     0.77500
O1274       O  0.58069123  0.94946618  0.53030503    -0.58700
O1275       O  0.65109037  0.97299961  0.49174616    -0.57100
O1276       O  0.63438109  0.91848281  0.50170161    -0.57100
O1277       O  0.68799351  0.94481975  0.45099047    -0.56300
O1278       O  0.75137722  0.04804984  0.47041648    -0.57500
C1279       C  0.80598089  0.09761880  0.46470333     0.75100
O1280       O  0.85508478  0.06577870  0.53124019    -0.58600
C1281       C  0.77148102  0.03598710  0.48033705     0.75100
C1282       C  0.87793555  0.06018594  0.42581516     0.77500
Cd1283     Cd  0.81777875  0.06520152  0.47820397     1.37500
O1284       O  0.77736676  0.08777756  0.45484079    -0.57500
O1285       O  0.83672108  0.06243764  0.42204489    -0.56300
C1286       C  0.81949683  0.06854284  0.54675516     0.77500
O1287       O  0.89209479  0.05977587  0.45466755    -0.58700
O1288       O  0.83766634  0.09225502  0.48126789    -0.57100
O1289       O  0.81225566  0.03749715  0.48722917    -0.57100
O1290       O  0.78425949  0.06995684  0.53028842    -0.56300
O1291       O  0.04300845  0.04262119  0.97504397    -0.57500
C1292       C  0.59020050  0.09667222  0.97800327     0.75100
O1293       O  0.60775079  0.06525364  0.04021694    -0.58600
C1294       C  0.06901767  0.03272647  0.98799765     0.75100
C1295       C  0.64181997  0.06174136  0.92578465     0.77500
Cd1296     Cd  0.59300656  0.06417990  0.98323259     1.37500
O1297       O  0.05767625  0.08834748  0.96835228    -0.57500
O1298       O  0.59951901  0.06221161  0.92579635    -0.56300
C1299       C  0.56678891  0.06709343  0.04750469     0.77500
O1300       O  0.66162474  0.06166118  0.95300329    -0.58700
O1301       O  0.62393392  0.08974429  0.98958602    -0.57100
O1302       O  0.60705923  0.03744318  0.99701556    -0.57100
O1303       O  0.03871055  0.06781085  0.02476690    -0.56300
O1304       O  0.50178978  0.96093636  0.01958791    -0.57500
C1305       C  0.93588808  0.91459429  0.02091013     0.75100
O1306       O  0.85574092  0.95219388  0.03666695    -0.58600
C1307       C  0.98602449  0.97383677  0.01034949     0.75100
C1308       C  0.92779711  0.94606022  0.94297878     0.77500
Cd1309     Cd  0.92980359  0.94732815  0.01173939     1.37500
O1310       O  0.46607965  0.92336080  0.03263006    -0.57500
O1311       O  0.96212968  0.94341859  0.95970688    -0.56300
C1312       C  0.87096291  0.95202927  0.06522841     0.77500
O1313       O  0.89254551  0.94952011  0.95833405    -0.58700
O1314       O  0.90588278  0.92109556  0.00451685    -0.57100
O1315       O  0.94465176  0.97445255  0.00480700    -0.57100
O1316       O  0.91276766  0.95120602  0.06811494    -0.56300
O1317       O  0.59629566  0.04638561  0.25620139    -0.57500
C1318       C  0.54540345  0.09634229  0.26445571     0.75100
O1319       O  0.99422472  0.06439340  0.19840148    -0.58600
C1320       C  0.57439777  0.03455757  0.24667905     0.75100
C1321       C  0.98097031  0.05967377  0.30831803     0.77500
Cd1322     Cd  0.53208286  0.06400567  0.25136999     1.37500
O1323       O  0.57502839  0.08652082  0.27238002    -0.57500
O1324       O  0.02302648  0.05956147  0.30823192    -0.56300
C1325       C  0.03011040  0.06724123  0.18323190     0.77500
O1326       O  0.96174531  0.06081626  0.28107411    -0.58700
O1327       O  0.01205376  0.09098380  0.25001669    -0.57100
O1328       O  0.53343301  0.03645798  0.24068797    -0.57100
O1329       O  0.56499246  0.06856614  0.19985445    -0.56300
O1330       O  0.65722670  0.92042787  0.20875995    -0.57500
C1331       C  0.65215668  0.97371780  0.22976490     0.75100
O1332       O  0.71847250  0.94574102  0.28464230    -0.58600
C1333       C  0.68790314  0.91168124  0.21965501     0.75100
C1334       C  0.75519158  0.94908111  0.17658645     0.77500
Cd1335     Cd  0.69406456  0.94423968  0.22823395     1.37500
O1336       O  0.63114366  0.96203114  0.21846068    -0.57500
O1337       O  0.71385679  0.94716505  0.17184954    -0.56300
C1338       C  0.68075061  0.94166691  0.29580474     0.77500
O1339       O  0.76850798  0.94915037  0.20570610    -0.58700
O1340       O  0.69227923  0.97162710  0.23795408    -0.57100
O1341       O  0.72067803  0.91812294  0.23354229    -0.57100
O1342       O  0.65061033  0.93850921  0.27545307    -0.56300
O1343       O  0.88278892  0.96198247  0.72450511    -0.57500
C1344       C  0.93308185  0.91081314  0.72900512     0.75100
O1345       O  0.51605560  0.94811026  0.70497269    -0.58600
C1346       C  0.90410289  0.97387773  0.73449561     0.75100
C1347       C  0.94851096  0.94434394  0.80449674     0.77500
Cd1348     Cd  0.94583816  0.94393249  0.73550314     1.37500
O1349       O  0.89996817  0.91997657  0.72714697    -0.57500
O1350       O  0.91329408  0.94225006  0.78831525    -0.56300
C1351       C  0.49678768  0.94793682  0.67762900     0.77500
O1352       O  0.48477072  0.94575432  0.78883986    -0.58700
O1353       O  0.97064827  0.91720445  0.73271856    -0.57100
O1354       O  0.94360603  0.97157963  0.74389007    -0.57100
O1355       O  0.95468972  0.94652094  0.67768417    -0.56300
O1356       O  0.85805676  0.04754027  0.76383616    -0.57500
C1357       C  0.82100419  0.09947574  0.76437001     0.75100
O1358       O  0.76458784  0.06872291  0.69987830    -0.58600
C1359       C  0.83543236  0.03653455  0.75131679     0.75100
C1360       C  0.74376994  0.06348226  0.80812143     0.77500
Cd1361     Cd  0.80008418  0.06745895  0.75383468     1.37500
O1362       O  0.85078384  0.08913847  0.76801031    -0.57500
O1363       O  0.78574186  0.06399589  0.81053835    -0.56300
C1364       C  0.80182797  0.06954906  0.68539649     0.77500
O1365       O  0.72728447  0.06441799  0.77995039    -0.58700
O1366       O  0.78212193  0.09488679  0.75752159    -0.57100
O1367       O  0.79691681  0.04000022  0.74137357    -0.57100
O1368       O  0.83648913  0.07005545  0.70269513    -0.56300
O1369       O  0.44719224  0.83431115  0.72253992    -0.57500
C1370       C  0.95783185  0.78369742  0.73092854     0.75100
O1371       O  0.86555014  0.80487014  0.78677588    -0.58600
C1372       C  0.91443326  0.84356439  0.72790772     0.75100
C1373       C  0.85241846  0.80689707  0.67494960     0.77500
Cd1374     Cd  0.90278204  0.81063927  0.73396932     1.37500
O1375       O  0.47422662  0.79692482  0.72342592    -0.57500
O1376       O  0.89442122  0.80717438  0.67623314    -0.56300
C1377       C  0.89860622  0.80967914  0.80328753     0.77500
O1378       O  0.83232307  0.80726620  0.70189750    -0.58700
O1379       O  0.91710450  0.78315797  0.73849662    -0.57100
O1380       O  0.87733914  0.83759168  0.73522591    -0.57100
O1381       O  0.93140619  0.81497844  0.78784825    -0.56300
O1382       O  0.54017409  0.71431369  0.74998554    -0.57500
C1383       C  0.58306553  0.66540591  0.75484205     0.75100
O1384       O  0.63991845  0.69602001  0.68555975    -0.58600
C1385       C  0.55859716  0.72644707  0.73893307     0.75100
C1386       C  0.66703964  0.70188183  0.79019773     0.77500
Cd1387     Cd  0.60404596  0.69704448  0.73927248     1.37500
O1388       O  0.55355165  0.67589338  0.75710688    -0.57500
O1389       O  0.62557224  0.70067199  0.79467196    -0.56300
C1390       C  0.60378600  0.69291552  0.67092207     0.77500
O1391       O  0.68044858  0.70104437  0.76125166    -0.58700
O1392       O  0.62127678  0.66983180  0.74618499    -0.57100
O1393       O  0.59842563  0.72507038  0.72964430    -0.57100
O1394       O  0.56937461  0.69154767  0.68805924    -0.56300
O1395       O  0.89216019  0.83965544  0.03344899    -0.57500
C1396       C  0.85247929  0.79169156  0.01892468     0.75100
O1397       O  0.45139798  0.80626368  0.95766731    -0.58600
C1398       C  0.92217070  0.84776144  0.02016756     0.75100
C1399       C  0.48313629  0.80856585  0.06282670     0.77500
Cd1400     Cd  0.91974886  0.81464080  0.01182076     1.37500
O1401       O  0.84220521  0.80589972  0.02196211    -0.57500
O1402       O  0.94116360  0.81064138  0.06774251    -0.56300
C1403       C  0.91767777  0.81182571  0.94226505     0.77500
O1404       O  0.49578845  0.80836584  0.03366352    -0.58700
O1405       O  0.89323360  0.78844014  0.01584392    -0.57100
O1406       O  0.94907369  0.84047881  0.00235822    -0.57100
O1407       O  0.88811644  0.81858361  0.95869411    -0.56300
O1408       O  0.81352681  0.72703306  0.97313372    -0.57500
C1409       C  0.75636274  0.66992003  0.98203135     0.75100
O1410       O  0.80981248  0.69852102  0.03174543    -0.58600
C1411       C  0.78348031  0.73302940  0.99054793     0.75100
C1412       C  0.76133010  0.70365439  0.91076172     0.77500
Cd1413     Cd  0.78767872  0.70088895  0.97666484     1.37500
O1414       O  0.79214216  0.67360729  0.96783647    -0.57500
O1415       O  0.80232452  0.70179438  0.91771227    -0.56300
C1416       C  0.85125128  0.69712507  0.02705781     0.77500
O1417       O  0.73431795  0.70407547  0.93418745    -0.58700
O1418       O  0.73337462  0.68086735  0.99432252    -0.57100
O1419       O  0.75259573  0.72413093  0.00063660    -0.57100
O1420       O  0.86483381  0.69723403  0.99797285    -0.56300
O1421       O  0.66091779  0.83750156  0.51355756    -0.57500
C1422       C  0.65752709  0.78527911  0.49562121     0.75100
O1423       O  0.73556149  0.81248901  0.44172519    -0.58600
C1424       C  0.69267338  0.84673025  0.50692459     0.75100
C1425       C  0.75718142  0.80894670  0.55288536     0.77500
Cd1426     Cd  0.70271712  0.81426450  0.49700292     1.37500
O1427       O  0.63593174  0.79757608  0.50228140    -0.57500
O1428       O  0.71561080  0.81125013  0.55454475    -0.56300
C1429       C  0.69876138  0.81515410  0.42745669     0.77500
O1430       O  0.77414111  0.80874435  0.52480333    -0.58700
O1431       O  0.69928015  0.78659650  0.49289914    -0.57100
O1432       O  0.72865186  0.84085174  0.49687197    -0.57100
O1433       O  0.66579233  0.81802468  0.44535493    -0.56300
O1434       O  0.60771045  0.71331767  0.46523458    -0.57500
C1435       C  0.54238526  0.66124306  0.46262835     0.75100
O1436       O  0.53057258  0.69343699  0.52525573    -0.58600
C1437       C  0.58177089  0.72429667  0.47384332     0.75100
C1438       C  0.51600236  0.69904829  0.40705201     0.77500
Cd1439     Cd  0.55099088  0.69372023  0.46868967     1.37500
O1440       O  0.57967526  0.66795151  0.45787494    -0.57500
O1441       O  0.55687663  0.69579710  0.41153204    -0.56300
C1442       C  0.57060579  0.69107101  0.53448359     0.77500
O1443       O  0.49096542  0.70017810  0.43175295    -0.58700
O1444       O  0.50947948  0.66997589  0.46897028    -0.57100
O1445       O  0.54113965  0.72087245  0.47884579    -0.57100
O1446       O  0.60038195  0.68941070  0.51304394    -0.56300
O1447       O  0.81768698  0.71583007  0.23045931    -0.57500
C1448       C  0.85519158  0.66793796  0.24250585     0.75100
O1449       O  0.93126102  0.70072806  0.17473152    -0.58600
C1450       C  0.83613558  0.72805614  0.21998343     0.75100
C1451       C  0.93996534  0.70377066  0.28029882     0.77500
Cd1452     Cd  0.88430737  0.69899458  0.22473357     1.37500
O1453       O  0.82718646  0.67869297  0.23763725    -0.57500
O1454       O  0.89832812  0.70573263  0.28083537    -0.56300
C1455       C  0.90124354  0.69512522  0.15655495     0.77500
O1456       O  0.95712759  0.70070090  0.25312287    -0.58700
O1457       O  0.89569221  0.67156148  0.23934683    -0.57100
O1458       O  0.87682023  0.72691231  0.21281424    -0.57100
O1459       O  0.86605843  0.69064038  0.17022627    -0.56300
O1460       O  0.74615374  0.79798942  0.20036331    -0.57500
C1461       C  0.68375424  0.84472546  0.21173101     0.75100
O1462       O  0.60053976  0.80482039  0.19800518    -0.58600
C1463       C  0.73286023  0.78463026  0.20901921     0.75100
C1464       C  0.68137142  0.81170645  0.28727719     0.77500
Cd1465     Cd  0.67672492  0.81142145  0.21722024     1.37500
O1466       O  0.71493284  0.83620647  0.20101615    -0.57500
O1467       O  0.71509362  0.81260341  0.26929778    -0.56300
C1468       C  0.60979829  0.80616568  0.16832438     0.77500
O1469       O  0.64439500  0.81009263  0.27272066    -0.58700
O1470       O  0.65021001  0.83781116  0.22297156    -0.57100
O1471       O  0.69354421  0.78379293  0.21974005    -0.57100
O1472       O  0.64996256  0.80900358  0.16149108    -0.56300
C1473       C  0.82922524  0.75717573  0.22570766    -0.01500
C1474       C  0.81123210  0.74281293  0.21544672     0.08200
C1475       C  0.76956169  0.74261851  0.19981391    -0.01600
C1476       C  0.74487289  0.75639520  0.19642520    -0.01600
C1477       C  0.76175393  0.77062709  0.20816523     0.08300
C1478       C  0.80468121  0.77101067  0.22198076    -0.01800
Br1479     Br  0.82910103  0.79032976  0.23777810    -0.00400
Br1480     Br  0.88651986  0.75799648  0.24660059    -0.00500
Br1481     Br  0.68849557  0.75574196  0.17432165    -0.00400
Br1482     Br  0.74724906  0.72359998  0.18107550    -0.00400
C1483       C  0.50513124  0.68899297  0.35133408    -0.01500
C1484       C  0.49849673  0.70092263  0.37406832     0.08200
C1485       C  0.97677541  0.71459906  0.36477188    -0.01600
C1486       C  0.96019082  0.71606559  0.33318028    -0.01600
C1487       C  0.96582163  0.70392164  0.31067587     0.08300
C1488       C  0.48994899  0.69069346  0.31954254    -0.01800
Br1489     Br  0.50136104  0.67441240  0.28869676    -0.00400
Br1490     Br  0.53083072  0.66953878  0.36460784    -0.00500
Br1491     Br  0.93160848  0.73503535  0.32021895    -0.00400
Br1492     Br  0.96993155  0.73141332  0.39511848    -0.00400
C1493       C  0.71975157  0.82172574  0.33786436    -0.01500
C1494       C  0.68546089  0.81272414  0.32328507     0.08200
C1495       C  0.65505954  0.80489746  0.34351547    -0.01600
C1496       C  0.65823295  0.80631332  0.37732382    -0.01600
C1497       C  0.69370548  0.81465491  0.39168652     0.08300
C1498       C  0.72374614  0.82261184  0.37171657    -0.01800
Br1499     Br  0.76794762  0.83606793  0.39085287    -0.00400
Br1500     Br  0.76118179  0.83355149  0.31224290    -0.00500
Br1501     Br  0.61313132  0.79672425  0.40370000    -0.00400
Br1502     Br  0.61073111  0.79107737  0.32562182    -0.00400
C1503       C  0.58347687  0.74963071  0.50441937    -0.01500
C1504       C  0.59843298  0.74036904  0.47837656     0.08200
C1505       C  0.63059802  0.74638410  0.45715684    -0.01600
C1506       C  0.64949251  0.76105008  0.46288660    -0.01600
C1507       C  0.63578943  0.77009102  0.48955053     0.08300
C1508       C  0.60205265  0.76443978  0.50990187    -0.01800
Br1509     Br  0.58293065  0.77648639  0.54656393    -0.00400
Br1510     Br  0.53898834  0.74199832  0.53394511    -0.00500
Br1511     Br  0.69320778  0.76882400  0.43287114    -0.00400
Br1512     Br  0.64707727  0.73508002  0.41871462    -0.00400
C1513       C  0.88049666  0.68118662  0.07186244    -0.01500
C1514       C  0.88088873  0.69533490  0.05521252     0.08200
C1515       C  0.89932122  0.70855990  0.07011187    -0.01600
C1516       C  0.91085090  0.70820012  0.10305723    -0.01600
C1517       C  0.90462936  0.69446376  0.12092288     0.08300
C1518       C  0.89254180  0.68071420  0.10458414    -0.01800
Br1519     Br  0.89085269  0.66131940  0.12739589    -0.00400
Br1520     Br  0.86076886  0.66267068  0.04999117    -0.00500
Br1521     Br  0.92980397  0.72700814  0.12426680    -0.00400
Br1522     Br  0.90565751  0.72739923  0.04578881    -0.00400
C1523       C  0.54923266  0.79622116  0.09023388    -0.01500
C1524       C  0.51452678  0.80723545  0.09047618     0.08200
C1525       C  0.51009724  0.81726661  0.11736838    -0.01600
C1526       C  0.54047439  0.81648868  0.14316534    -0.01600
C1527       C  0.57525426  0.80557831  0.14276436     0.08300
C1528       C  0.57922379  0.79534911  0.11635087    -0.01800
Br1529     Br  0.62503197  0.77977718  0.11634156    -0.00400
Br1530     Br  0.55523741  0.78195459  0.05462575    -0.00500
Br1531     Br  0.03670563  0.83161682  0.17783706    -0.00400
Br1532     Br  0.96471423  0.83343917  0.11817517    -0.00400
C1533       C  0.81232002  0.76845485  0.03957310    -0.01500
C1534       C  0.81931799  0.77930839  0.01496801     0.08200
C1535       C  0.80528895  0.77592192  0.98346929    -0.01600
C1536       C  0.79102338  0.76089169  0.97550079    -0.01600
C1537       C  0.78690243  0.74955037  0.99966865     0.08300
C1538       C  0.79524842  0.75364181  0.03205181    -0.01800
Br1539     Br  0.78964845  0.73833452  0.06548565    -0.00400
Br1540     Br  0.82907698  0.77364283  0.08303518    -0.00500
Br1541     Br  0.78218949  0.75556823  0.93090546    -0.00400
Br1542     Br  0.81008230  0.79155272  0.95055543    -0.00400
C1543       C  0.61906215  0.70268308  0.61521995    -0.01500
C1544       C  0.60062835  0.69129854  0.63552100     0.08200
C1545       C  0.57529154  0.67908704  0.62194684    -0.01600
C1546       C  0.56578690  0.67891597  0.58880416    -0.01600
C1547       C  0.58260919  0.69065260  0.56887532     0.08300
C1548       C  0.61109938  0.70207585  0.58186283    -0.01800
Br1549     Br  0.63843306  0.71719167  0.55408028    -0.00400
Br1550     Br  0.65182293  0.71996577  0.63303543    -0.00500
Br1551     Br  0.03061810  0.66233304  0.57057362    -0.00400
Br1552     Br  0.55469729  0.66221428  0.64839606    -0.00400
C1553       C  0.68615656  0.71521583  0.84171387    -0.01500
C1554       C  0.69733308  0.70416806  0.81803527     0.08200
C1555       C  0.73449155  0.69446553  0.82293698    -0.01600
C1556       C  0.75832569  0.69511827  0.85229243    -0.01600
C1557       C  0.74428091  0.70519207  0.87722360     0.08300
C1558       C  0.70949854  0.71576729  0.87099011    -0.01800
Br1559     Br  0.69365169  0.73139087  0.90229008    -0.00400
Br1560     Br  0.63824469  0.72967872  0.83429856    -0.00500
Br1561     Br  0.80834245  0.68149847  0.85859247    -0.00400
Br1562     Br  0.75006629  0.67914861  0.79093236    -0.00400
C1563       C  0.90988300  0.79607525  0.85615030    -0.01500
C1564       C  0.89967999  0.80968432  0.83896167     0.08200
C1565       C  0.89659376  0.82388184  0.85556851    -0.01600
C1566       C  0.90263439  0.82450614  0.88915008    -0.01600
C1567       C  0.91359122  0.81097206  0.90653145     0.08300
C1568       C  0.91744911  0.79672619  0.88975825    -0.01800
Br1569     Br  0.93198495  0.77799908  0.91266629    -0.00400
Br1570     Br  0.91461293  0.77663226  0.83332870    -0.00500
Br1571     Br  0.89784830  0.84425592  0.91092325    -0.00400
Br1572     Br  0.88468721  0.84263337  0.83191344    -0.00400
C1573       C  0.79132495  0.79717994  0.63779170    -0.01500
C1574       C  0.82889084  0.80670907  0.64319597     0.08200
C1575       C  0.84469651  0.81606666  0.61764300    -0.01600
C1576       C  0.82244448  0.81627345  0.58773126    -0.01600
C1577       C  0.78414910  0.80713011  0.58275431     0.08300
C1578       C  0.76949171  0.79725908  0.60763763    -0.01800
Br1579     Br  0.72102758  0.78303203  0.59969243    -0.00400
Br1580     Br  0.77046932  0.78347643  0.67108431    -0.00500
Br1581     Br  0.84334833  0.82987086  0.55416260    -0.00400
Br1582     Br  0.89537126  0.82960142  0.62362521    -0.00400
C1583       C  0.52816337  0.76928114  0.74551299    -0.01500
C1584       C  0.48588362  0.76939643  0.73070693     0.08200
C1585       C  0.96804187  0.75553006  0.71789359    -0.01600
C1586       C  0.49250976  0.74155900  0.72031536    -0.01600
C1587       C  0.53425609  0.74133737  0.73580537     0.08300
C1588       C  0.55281931  0.75540321  0.74716397    -0.01800
Br1589     Br  0.61172560  0.75582386  0.76553757    -0.00400
Br1590     Br  0.55102755  0.78778411  0.76609316    -0.00500
Br1591     Br  0.96856454  0.72292329  0.70109685    -0.00400
Br1592     Br  0.91232905  0.75559058  0.69466061    -0.00400
C1593       C  0.89216470  0.86989034  0.70753931    -0.01500
C1594       C  0.92024514  0.86063272  0.72669037     0.08200
C1595       C  0.95283497  0.86775969  0.74601132    -0.01600
C1596       C  0.95756353  0.88401411  0.74626007    -0.01600
C1597       C  0.92877796  0.89349798  0.72766378     0.08300
C1598       C  0.89637287  0.88621864  0.70793479    -0.01800
Br1599     Br  0.85923962  0.89831266  0.67965872    -0.00400
Br1600     Br  0.84888484  0.86011905  0.67970486    -0.00500
Br1601     Br  0.50357290  0.89289185  0.77348191    -0.00400
Br1602     Br  0.48965599  0.85526809  0.77411784    -0.00400
C1603       C  0.89679752  0.01795818  0.73647670    -0.01500
C1604       C  0.85294805  0.02044982  0.74737256     0.08200
C1605       C  0.82472665  0.00746688  0.75197297    -0.01600
C1606       C  0.84060118  0.99225210  0.74670167    -0.01600
C1607       C  0.88463372  0.98978862  0.73611649     0.08300
C1608       C  0.91196343  0.00281274  0.72994410    -0.01800
Br1609     Br  0.96937759  0.00014988  0.70993121    -0.00400
Br1610     Br  0.93651644  0.03522642  0.72922476    -0.00500
Br1611     Br  0.80193711  0.97488308  0.75548931    -0.00400
Br1612     Br  0.76469481  0.01025294  0.76744251    -0.00400
C1613       C  0.69173414  0.88724054  0.18711467    -0.01500
C1614       C  0.68593097  0.89463670  0.21704480     0.08200
C1615       C  0.68135970  0.88570280  0.24508136    -0.01600
C1616       C  0.68079659  0.86943311  0.24306828    -0.01600
C1617       C  0.68631719  0.86190121  0.21310008     0.08300
C1618       C  0.69190298  0.87088893  0.18507943    -0.01800
Br1619     Br  0.69759593  0.86094411  0.14377008    -0.00400
Br1620     Br  0.70180401  0.89965893  0.14934304    -0.00500
Br1621     Br  0.67322769  0.85752271  0.28186683    -0.00400
Br1622     Br  0.67599819  0.89578060  0.28647746    -0.00400
C1623       C  0.61803008  0.01204979  0.26779382    -0.01500
C1624       C  0.59519150  0.01916249  0.24226029     0.08200
C1625       C  0.59064358  0.01125471  0.21262563    -0.01600
C1626       C  0.60778740  0.99617899  0.20876864    -0.01600
C1627       C  0.63135237  0.98914508  0.23412150     0.08300
C1628       C  0.63678533  0.99723225  0.26359818    -0.01800
Br1629     Br  0.66854193  0.98793031  0.29906127    -0.00400
Br1630     Br  0.62146371  0.02221884  0.30918726    -0.00500
Br1631     Br  0.60089365  0.98560131  0.16804386    -0.00400
Br1632     Br  0.06381505  0.02151369  0.17643808    -0.00400
C1633       C  0.89255359  0.89043556  0.03110042    -0.01500
C1634       C  0.93418456  0.89759226  0.02593093     0.08200
C1635       C  0.47282727  0.88832636  0.02329416    -0.01600
C1636       C  0.96866808  0.87202051  0.02412619    -0.01600
C1637       C  0.92620883  0.86484783  0.02480367     0.08300
C1638       C  0.88814548  0.87422405  0.02896492    -0.01800
Br1639     Br  0.82913679  0.86537597  0.02958259    -0.00400
Br1640     Br  0.84144490  0.90281800  0.04278016    -0.00500
Br1641     Br  0.52290721  0.85983085  0.02644155    -0.00400
Br1642     Br  0.53029305  0.89774154  0.01653360    -0.00400
C1643       C  0.91775949  0.95657732  0.85426951    -0.01500
C1644       C  0.94592954  0.94541960  0.84005020     0.08200
C1645       C  0.46674626  0.93431542  0.85964062    -0.01600
C1646       C  0.95747451  0.93377211  0.89277613    -0.01600
C1647       C  0.93035311  0.94521182  0.90729184     0.08300
C1648       C  0.90996795  0.95651850  0.88771199    -0.01800
Br1649     Br  0.87191420  0.97218412  0.90620206    -0.00400
Br1650     Br  0.89202121  0.97265290  0.82797698    -0.00500
Br1651     Br  0.47864686  0.91634050  0.91760649    -0.00400
Br1652     Br  0.50774065  0.91969048  0.84117215    -0.00400
C1653       C  0.80545475  0.96209591  0.09703255    -0.01500
C1654       C  0.84190528  0.95190141  0.09413675     0.08200
C1655       C  0.85058612  0.94120208  0.11910935    -0.01600
C1656       C  0.82307933  0.94066272  0.14644653    -0.01600
C1657       C  0.78625055  0.95066101  0.14908379     0.08300
C1658       C  0.77765100  0.96142393  0.12432144    -0.01800
Br1659     Br  0.72871083  0.97574699  0.12835709    -0.00400
Br1660     Br  0.79467078  0.97752585  0.06449030    -0.00500
Br1661     Br  0.83437574  0.92538229  0.17929606    -0.00400
Br1662     Br  0.89839264  0.92632841  0.11529719    -0.00400
C1663       C  0.02007599  0.05819315  0.09381765    -0.01500
C1664       C  0.55248624  0.06833705  0.08133448     0.08200
C1665       C  0.57182177  0.07960919  0.10149011    -0.01600
C1666       C  0.56086795  0.08011976  0.13431335    -0.01600
C1667       C  0.53227089  0.06881927  0.14763213     0.08300
C1668       C  0.01061091  0.05821438  0.12702301    -0.01800
Br1669     Br  0.96975843  0.04301970  0.14381697    -0.00400
Br1670     Br  0.98987086  0.04371855  0.06566957    -0.00500
Br1671     Br  0.58346545  0.09690609  0.16057518    -0.00400
Br1672     Br  0.61243160  0.09470184  0.08383421    -0.00400
C1673       C  0.70084000  0.05077961  0.88972156    -0.01500
C1674       C  0.66682300  0.06170159  0.89516422     0.08200
C1675       C  0.65707858  0.07284406  0.87134251    -0.01600
C1676       C  0.68201872  0.07331998  0.84276774    -0.01600
C1677       C  0.71575581  0.06232185  0.83720527     0.08300
C1678       C  0.72485139  0.05096935  0.86067844    -0.01800
Br1679     Br  0.76929298  0.03529683  0.85272161    -0.00400
Br1680     Br  0.71368241  0.03515868  0.92152775    -0.00500
Br1681     Br  0.67256774  0.08999108  0.81264268    -0.00400
Br1682     Br  0.61134793  0.08819137  0.87836179    -0.00400
C1683       C  0.55823072  0.00942825  0.02335165    -0.01500
C1684       C  0.05468455  0.01648444  0.99284377     0.08200
C1685       C  0.03405441  0.00837667  0.96741668    -0.01600
C1686       C  0.01413857  0.99392149  0.97303881    -0.01600
C1687       C  0.01400218  0.98755221  0.00419419     0.08300
C1688       C  0.53716083  0.99508671  0.02914708    -0.01800
Br1689     Br  0.53689133  0.98639920  0.07181715    -0.00400
Br1690     Br  0.58976059  0.01958667  0.05803465    -0.00500
Br1691     Br  0.98712412  0.98274771  0.93775879    -0.00400
Br1692     Br  0.03399821  0.01683833  0.92449191    -0.00400
C1693       C  0.79170855  0.08114511  0.59755403    -0.01500
C1694       C  0.81804435  0.06964811  0.58242072     0.08200
C1695       C  0.83975613  0.05846613  0.60152638    -0.01600
C1696       C  0.83279721  0.05817528  0.63497545    -0.01600
C1697       C  0.80583480  0.06944963  0.64993800     0.08300
C1698       C  0.78580661  0.08106226  0.63120223    -0.01800
Br1699     Br  0.75203727  0.09727807  0.65184019    -0.00400
Br1700     Br  0.76610971  0.09774806  0.57262784    -0.00500
Br1701     Br  0.85803229  0.04158013  0.66009318    -0.00400
Br1702     Br  0.87840773  0.04316140  0.58234600    -0.00400
C1703       C  0.94669856  0.06743946  0.39500854    -0.01500
C1704       C  0.90741310  0.05857076  0.39740360     0.08200
C1705       C  0.89376423  0.04935665  0.37096348    -0.01600
C1706       C  0.91819445  0.04943728  0.34209278    -0.01600
C1707       C  0.95606460  0.05895584  0.33908328     0.08300
C1708       C  0.97041456  0.06788734  0.36583575    -0.01800
Br1709     Br  0.52015673  0.08189440  0.36202316    -0.00400
Br1710     Br  0.96723827  0.07975805  0.43096422    -0.00500
Br1711     Br  0.90048795  0.03595136  0.30718000    -0.00400
Br1712     Br  0.84229228  0.03606978  0.37452601    -0.00400
C1713       C  0.66804265  0.87126249  0.48197789    -0.01500
C1714       C  0.68741366  0.86369080  0.50833651     0.08200
C1715       C  0.70462833  0.87241624  0.53424373    -0.01600
C1716       C  0.70107445  0.88873911  0.53424837    -0.01600
C1717       C  0.68043294  0.89633777  0.50818608     0.08300
C1718       C  0.66457542  0.88749791  0.48179573    -0.01800
Br1719     Br  0.63994943  0.89751932  0.44428523    -0.00400
Br1720     Br  0.64749913  0.85926489  0.44550267    -0.00500
Br1721     Br  0.72267365  0.90052036  0.57057486    -0.00400
Br1722     Br  0.73251804  0.86192295  0.56978990    -0.00400
C1723       C  0.63139039  0.94623777  0.34391610    -0.01500
C1724       C  0.67187596  0.94069625  0.33091233     0.08200
C1725       C  0.70367552  0.93408449  0.35161847    -0.01600
C1726       C  0.69659005  0.93395670  0.38508957    -0.01600
C1727       C  0.65762249  0.94061890  0.39845533     0.08300
C1728       C  0.62437101  0.94625399  0.37747331    -0.01800
Br1729     Br  0.56970175  0.95480393  0.39415380    -0.00400
Br1730     Br  0.58563506  0.95459143  0.31623611    -0.00500
Br1731     Br  0.74014152  0.92379011  0.41202874    -0.00400
Br1732     Br  0.75612547  0.92427759  0.33407311    -0.00400
C1733       C  0.55440956  0.96026098  0.64176645    -0.01500
C1734       C  0.52164966  0.94879565  0.64674382     0.08200
C1735       C  0.51227217  0.93806446  0.62180347    -0.01600
C1736       C  0.53558141  0.93872766  0.59245301    -0.01600
C1737       C  0.56951719  0.94979863  0.58797717     0.08300
C1738       C  0.57890819  0.96053991  0.61283325    -0.01800
Br1739     Br  0.62473601  0.97593862  0.60707735    -0.00400
Br1740     Br  0.56395004  0.97621302  0.67368571    -0.00500
Br1741     Br  0.52300144  0.92364914  0.55917710    -0.00400
Br1742     Br  0.96951354  0.92154087  0.62830353    -0.00400
C1743       C  0.70884057  0.99831325  0.46399156    -0.01500
C1744       C  0.71113474  0.99112694  0.49444758     0.08200
C1745       C  0.73182546  0.99891899  0.52022150    -0.01600
C1746       C  0.75084064  0.01365553  0.51552259    -0.01600
C1747       C  0.74890456  0.02085361  0.48507520     0.08300
C1748       C  0.72756095  0.01315048  0.45935650    -0.01800
Br1749     Br  0.72631443  0.02244365  0.41727973    -0.00400
Br1750     Br  0.68228140  0.98745661  0.42800365    -0.00500
Br1751     Br  0.77815760  0.02419395  0.55145730    -0.00400
Br1752     Br  0.73201793  0.98977060  0.56250298    -0.00400
C1753       C  0.85735769  0.13885132  0.73541355    -0.01500
C1754       C  0.84379344  0.14866834  0.76086689     0.08200
C1755       C  0.82367984  0.14212568  0.78833523    -0.01600
C1756       C  0.81706652  0.12592420  0.79011444    -0.01600
C1757       C  0.83136851  0.11621244  0.76481088     0.08300
C1758       C  0.85132329  0.12273951  0.73750260    -0.01800
Br1759     Br  0.86760064  0.10958074  0.70172357    -0.00400
Br1760     Br  0.88105815  0.14737795  0.69615360    -0.00500
Br1761     Br  0.78830898  0.11700239  0.82706191    -0.00400
Br1762     Br  0.80655199  0.15520044  0.82397180    -0.00400
C1763       C  0.80829475  0.25265298  0.71853747    -0.01500
C1764       C  0.79818552  0.24219117  0.74369182     0.08200
C1765       C  0.76544910  0.24626520  0.76641313    -0.01600
C1766       C  0.74238221  0.26041271  0.76370751    -0.01600
C1767       C  0.75159793  0.27072580  0.73807712     0.08300
C1768       C  0.78452881  0.26666399  0.71541031    -0.01800
Br1769     Br  0.79527597  0.27966981  0.67850998    -0.00400
Br1770     Br  0.85410620  0.24791970  0.68742998    -0.00500
Br1771     Br  0.69959601  0.26569230  0.79662254    -0.00400
Br1772     Br  0.75436112  0.23304206  0.80300313    -0.00400
C1773       C  0.59094329  0.12086774  0.27147893    -0.01500
C1774       C  0.54920058  0.11334148  0.27095840     0.08200
C1775       C  0.01068732  0.12242689  0.27514683    -0.01600
C1776       C  0.01297898  0.13876823  0.27473884    -0.01600
C1777       C  0.05462858  0.14628321  0.27263225     0.08300
C1778       C  0.59330109  0.13712833  0.27429498    -0.01800
Br1779     Br  0.65039249  0.14671905  0.28234694    -0.00400
Br1780     Br  0.64550460  0.10944698  0.26546703    -0.00500
Br1781     Br  0.95829807  0.15048838  0.27561222    -0.00400
Br1782     Br  0.95363938  0.11266994  0.28251614    -0.00400
C1783       C  0.98493820  0.24701035  0.27205440    -0.01500
C1784       C  0.01250640  0.24127855  0.24743220     0.08200
C1785       C  0.02347492  0.25099282  0.22119554    -0.01600
C1786       C  0.00604972  0.26613494  0.21933087    -0.01600
C1787       C  0.97787201  0.27177086  0.24375570     0.08300
C1788       C  0.96808353  0.26218590  0.27036178    -0.01800
Br1789     Br  0.93428218  0.27004754  0.30615608    -0.00400
Br1790     Br  0.97248301  0.23449532  0.30948166    -0.00500
Br1791     Br  0.01943272  0.27883768  0.18243555    -0.00400
Br1792     Br  0.06108975  0.24359449  0.18679924    -0.00400
C1793       C  0.66483601  0.32821365  0.86037671    -0.01500
C1794       C  0.69308746  0.31861274  0.84213307     0.08200
C1795       C  0.72950085  0.31131355  0.85734263    -0.01600
C1796       C  0.73607569  0.31287187  0.89079329    -0.01600
C1797       C  0.70646068  0.32189076  0.90937202     0.08300
C1798       C  0.67210267  0.33014653  0.89364370    -0.01800
Br1799     Br  0.63671392  0.34509274  0.91703869    -0.00400
Br1800     Br  0.61703321  0.33926803  0.83962938    -0.00500
Br1801     Br  0.78487544  0.30200621  0.91081917    -0.00400
Br1802     Br  0.76934825  0.29835590  0.83276847    -0.00400
C1803       C  0.76394800  0.32294024  0.12962802    -0.01500
C1804       C  0.77619741  0.31353693  0.10313578     0.08200
C1805       C  0.81163700  0.30297698  0.10655497    -0.01600
C1806       C  0.83607659  0.30241423  0.13548040    -0.01600
C1807       C  0.82463993  0.31211965  0.16163487     0.08300
C1808       C  0.78733482  0.32193706  0.15898030    -0.01800
Br1809     Br  0.76931587  0.33473075  0.19487302    -0.00400
Br1810     Br  0.71784244  0.33836589  0.12512099    -0.00500
Br1811     Br  0.88446677  0.28784882  0.13953775    -0.00400
Br1812     Br  0.82593806  0.28879371  0.07207078    -0.00400
C1813       C  0.61946168  0.13869770  0.95997874    -0.01500
C1814       C  0.58397317  0.14660937  0.97513793     0.08200
C1815       C  0.05240500  0.13790537  0.99277294    -0.01600
C1816       C  0.05414856  0.12161173  0.99306411    -0.01600
C1817       C  0.58850986  0.11379173  0.97700624     0.08300
C1818       C  0.62219790  0.12237693  0.96160674    -0.01800
Br1819     Br  0.67199319  0.11175805  0.94230648    -0.00400
Br1820     Br  0.66367713  0.14986770  0.93574165    -0.00500
Br1821     Br  0.01086456  0.10998587  0.01747788    -0.00400
Br1822     Br  0.00809260  0.14804507  0.01913324    -0.00400
C1823       C  0.57957090  0.18245212  0.09644683    -0.01500
C1824       C  0.05123245  0.19310416  0.08074306     0.08200
C1825       C  0.02375479  0.20289846  0.09928114    -0.01600
C1826       C  0.02517935  0.20217476  0.13312494    -0.01600
C1827       C  0.05627375  0.19243788  0.14862128     0.08300
C1828       C  0.58251111  0.18226690  0.13018471    -0.01800
Br1829     Br  0.62077670  0.16745726  0.15120803    -0.00400
Br1830     Br  0.61418467  0.16769515  0.07195122    -0.00500
Br1831     Br  0.98490773  0.21485477  0.15792461    -0.00400
Br1832     Br  0.98728969  0.21841729  0.07878748    -0.00400
C1833       C  0.96709609  0.21456936  0.87991822    -0.01500
C1834       C  0.99891182  0.20294492  0.88602264     0.08200
C1835       C  0.00994896  0.19225137  0.86146190    -0.01600
C1836       C  0.98790779  0.19274037  0.83161100    -0.01600
C1837       C  0.95455599  0.20386840  0.82612911     0.08300
C1838       C  0.94500341  0.21502134  0.85003741    -0.01800
Br1839     Br  0.90213593  0.23115344  0.84147919    -0.00400
Br1840     Br  0.95457785  0.23018824  0.91196534    -0.00500
Br1841     Br  0.00097326  0.17725703  0.79932101    -0.00400
Br1842     Br  0.55237632  0.17605949  0.86939778    -0.00400
C1843       C  0.62357551  0.24760074  0.02087907    -0.01500
C1844       C  0.62708280  0.24101961  0.98986855     0.08200
C1845       C  0.64641398  0.24959542  0.96481592    -0.01600
C1846       C  0.65987588  0.26502008  0.97034101    -0.01600
C1847       C  0.65544056  0.27172819  0.00124190     0.08300
C1848       C  0.63796670  0.26287970  0.02660598    -0.01800
Br1849     Br  0.63573745  0.27138917  0.06955148    -0.00400
Br1850     Br  0.60100562  0.23536781  0.05602754    -0.00500
Br1851     Br  0.68159589  0.27725126  0.93490337    -0.00400
Br1852     Br  0.65310125  0.24041381  0.92271516    -0.00400
C1853       C  0.76218612  0.12235517  0.45605561    -0.01500
C1854       C  0.80341328  0.11459817  0.45794803     0.08200
C1855       C  0.84306425  0.12341160  0.45519665    -0.01600
C1856       C  0.84173656  0.13974167  0.45509693    -0.01600
C1857       C  0.80050353  0.14752637  0.45574729     0.08300
C1858       C  0.76088678  0.13865809  0.45359080    -0.01800
Br1859     Br  0.70443989  0.14864729  0.44564944    -0.00400
Br1860     Br  0.70686197  0.11108070  0.45935907    -0.00500
Br1861     Br  0.89722508  0.15110050  0.45588846    -0.00400
Br1862     Br  0.90000906  0.11334650  0.45061990    -0.00400
C1863       C  0.85801511  0.18403094  0.58883507    -0.01500
C1864       C  0.82188308  0.19300965  0.57735550     0.08200
C1865       C  0.80003420  0.20319984  0.59880693    -0.01600
C1866       C  0.81322015  0.20403760  0.63120468    -0.01600
C1867       C  0.84987823  0.19539257  0.64233299     0.08300
C1868       C  0.87314263  0.18576280  0.62082280    -0.01800
Br1869     Br  0.92506965  0.17469657  0.63532100    -0.00400
Br1870     Br  0.88437851  0.16820576  0.56205422    -0.00500
Br1871     Br  0.78140426  0.21756819  0.66030418    -0.00400
Br1872     Br  0.75322989  0.21679573  0.58419401    -0.00400
C1873       C  0.64497339  0.21081003  0.36040239    -0.01500
C1874       C  0.65948593  0.20242797  0.33300727     0.08200
C1875       C  0.70052866  0.19452316  0.33429898    -0.01600
C1876       C  0.72511595  0.19412368  0.36317342    -0.01600
C1877       C  0.71022509  0.20229195  0.39073557     0.08300
C1878       C  0.67042911  0.21086993  0.38894684    -0.01800
Br1879     Br  0.65126339  0.22322362  0.42517716    -0.00400
Br1880     Br  0.59085986  0.22283907  0.35884705    -0.00500
Br1881     Br  0.77717670  0.18100369  0.36527874    -0.00400
Br1882     Br  0.72264672  0.18338264  0.29722121    -0.00400
C1883       C  0.96069312  0.32869737  0.39487092    -0.01500
C1884       C  0.93879246  0.31757627  0.41379854     0.08200
C1885       C  0.90828255  0.30727695  0.39908071    -0.01600
C1886       C  0.89911500  0.30825143  0.36589891    -0.01600
C1887       C  0.92147414  0.31926057  0.34684224     0.08300
C1888       C  0.95175134  0.32964117  0.36164902    -0.01800
Br1889     Br  0.97896613  0.34595052  0.33690994    -0.00400
Br1890     Br  0.50194349  0.34301027  0.41451850    -0.00500
Br1891     Br  0.85693326  0.29405196  0.34673750    -0.00400
Br1892     Br  0.88167834  0.29086500  0.42384644    -0.00400
C1893       C  0.02093555  0.31629043  0.62986981    -0.01500
C1894       C  0.53528735  0.30885871  0.60122823     0.08200
C1895       C  0.57605278  0.30077095  0.60134009    -0.01600
C1896       C  0.60257344  0.30043065  0.62938795    -0.01600
C1897       C  0.58869073  0.30817031  0.65766831     0.08300
C1898       C  0.54741071  0.31590386  0.65785184    -0.01800
Br1899     Br  0.02812492  0.32725626  0.69558510    -0.00400
Br1900     Br  0.96618627  0.32803212  0.63069961    -0.00500
Br1901     Br  0.65746297  0.28883027  0.62930273    -0.00400
Br1902     Br  0.59514685  0.28953931  0.56360890    -0.00400
C1903       C  0.83709668  0.27070667  0.49916278    -0.01500
C1904       C  0.88037726  0.27142528  0.51230948     0.08200
C1905       C  0.90397131  0.25756207  0.51782676    -0.01600
C1906       C  0.88585735  0.24320238  0.50835701    -0.01600
C1907       C  0.84351901  0.24249109  0.49366392     0.08300
C1908       C  0.81877940  0.25629881  0.48982471    -0.01800
Br1909     Br  0.76073736  0.25578329  0.46994048    -0.00400
Br1910     Br  0.80339443  0.28946785  0.49222914    -0.00500
Br1911     Br  0.91876253  0.22446682  0.51718719    -0.00400
Br1912     Br  0.96043415  0.25809596  0.54011661    -0.00400
C1913       C  0.63782702  0.39060052  0.04030712    -0.01500
C1914       C  0.66663696  0.40012107  0.02236136     0.08200
C1915       C  0.69877006  0.39332967  0.00226299    -0.01600
C1916       C  0.70325543  0.37711565  0.00092961    -0.01600
C1917       C  0.67592621  0.36748855  0.02019063     0.08300
C1918       C  0.64257818  0.37434160  0.03944758    -0.01800
Br1919     Br  0.60397449  0.36173672  0.06560120    -0.00400
Br1920     Br  0.59224610  0.39988844  0.06667149    -0.00500
Br1921     Br  0.74490189  0.36833505  0.97045968    -0.00400
Br1922     Br  0.73445993  0.40623656  0.97448567    -0.00400
C1923       C  0.74583205  0.62808649  0.95730455    -0.01500
C1924       C  0.75120555  0.62076680  0.98726122     0.08200
C1925       C  0.75007568  0.62973444  0.01575139    -0.01600
C1926       C  0.74413244  0.64590726  0.01421577    -0.01600
C1927       C  0.74405883  0.65335417  0.98417253     0.08300
C1928       C  0.74285734  0.64435939  0.95577872    -0.01800
Br1929     Br  0.73823556  0.65450765  0.91466412    -0.00400
Br1930     Br  0.74833703  0.61606397  0.91815193    -0.00500
Br1931     Br  0.73807921  0.65785653  0.05325689    -0.00400
Br1932     Br  0.76046848  0.62012260  0.05685810    -0.00400
C1933       C  0.67769591  0.50555928  0.98214225    -0.01500
C1934       C  0.69002392  0.49709896  0.00991692     0.08200
C1935       C  0.71673265  0.50426586  0.03358126    -0.01600
C1936       C  0.73231303  0.51946357  0.02903988    -0.01600
C1937       C  0.72302520  0.52744151  0.00019172     0.08300
C1938       C  0.69496259  0.52056010  0.97702118    -0.01800
Br1939     Br  0.68232641  0.53120424  0.93731990    -0.00400
Br1940     Br  0.63855859  0.49660446  0.95013185    -0.00500
Br1941     Br  0.76434038  0.52965269  0.06352894    -0.00400
Br1942     Br  0.73052309  0.49364309  0.07319822    -0.00400
C1943       C  0.84801092  0.62894927  0.28543821    -0.01500
C1944       C  0.82264291  0.62008431  0.26345239     0.08200
C1945       C  0.80727809  0.62719594  0.23485958    -0.01600
C1946       C  0.81631831  0.64298117  0.22876009    -0.01600
C1947       C  0.84186557  0.65178531  0.25064240     0.08300
C1948       C  0.85760285  0.64469355  0.27903111    -0.01800
Br1949     Br  0.89090895  0.65675858  0.30991774    -0.00400
Br1950     Br  0.86869690  0.61969834  0.32485485    -0.00500
Br1951     Br  0.79580345  0.65233271  0.18932388    -0.00400
Br1952     Br  0.77726683  0.61504760  0.20225092    -0.00400
C1953       C  0.82248568  0.56424470  0.11814438    -0.01500
C1954       C  0.78776433  0.57117098  0.10023395     0.08200
C1955       C  0.75005210  0.57692728  0.11702152    -0.01600
C1956       C  0.74688883  0.57550694  0.15072938    -0.01600
C1957       C  0.78268008  0.56943499  0.16858959     0.08300
C1958       C  0.82043719  0.56374607  0.15201644    -0.01800
Br1959     Br  0.86943613  0.55450692  0.17533983    -0.00400
Br1960     Br  0.87245589  0.55454125  0.09692843    -0.00500
Br1961     Br  0.69353129  0.58247207  0.17221339    -0.00400
Br1962     Br  0.70305173  0.58791484  0.09498772    -0.00400
C1963       C  0.97392236  0.39023419  0.24779592    -0.01500
C1964       C  0.94073882  0.39922906  0.23205201     0.08200
C1965       C  0.90924538  0.39149266  0.21231860    -0.01600
C1966       C  0.90858934  0.37514511  0.21072620    -0.01600
C1967       C  0.94061390  0.36634441  0.22734894     0.08300
C1968       C  0.97487264  0.37398739  0.24408306    -0.01800
Br1969     Br  0.02264763  0.36214865  0.26289462    -0.00400
Br1970     Br  0.01624625  0.39945543  0.27738161    -0.00500
Br1971     Br  0.36473626  0.36460274  0.18464896    -0.00400
Br1972     Br  0.36767490  0.40292810  0.18636238    -0.00400
C1973       C  0.54331831  0.46446281  0.11088155    -0.01500
C1974       C  0.57922972  0.45406825  0.10759252     0.08200
C1975       C  0.59180308  0.44480670  0.13409473    -0.01600
C1976       C  0.56704090  0.44530139  0.16282021    -0.01600
C1977       C  0.52984514  0.45517660  0.16548140     0.08300
C1978       C  0.51830941  0.46482906  0.13947362    -0.01800
Br1979     Br  0.96863315  0.47886974  0.14288892    -0.00400
Br1980     Br  0.03031591  0.47907550  0.07697916    -0.00500
Br1981     Br  0.58182639  0.43128291  0.19737684    -0.00400
Br1982     Br  0.64155525  0.43072650  0.13101785    -0.00400
C1983       C  0.85381123  0.50087029  0.23298945    -0.01500
C1984       C  0.87998661  0.49406071  0.25724859     0.08200
C1985       C  0.88668158  0.50217553  0.28652262    -0.01600
C1986       C  0.86994634  0.51733016  0.29060583    -0.01600
C1987       C  0.84455851  0.52428411  0.26606601     0.08300
C1988       C  0.83496555  0.51566806  0.23778406    -0.01800
Br1989     Br  0.79623137  0.52396506  0.20500466    -0.00400
Br1990     Br  0.84598748  0.49042737  0.19220387    -0.00500
Br1991     Br  0.87901852  0.52807098  0.33092660    -0.00400
Br1992     Br  0.91604428  0.49215380  0.32219948    -0.00400
C1993       C  0.50525049  0.63645554  0.48135451    -0.01500
C1994       C  0.53806449  0.64399091  0.46235103     0.08200
C1995       C  0.56890443  0.63476634  0.44506897    -0.01600
C1996       C  0.57068185  0.61866555  0.45013985    -0.01600
C1997       C  0.54089805  0.61156682  0.47153586     0.08300
C1998       C  0.50688226  0.62029202  0.48578666    -0.01800
Br1999     Br  0.46440467  0.61014797  0.51339295    -0.00400
Br2000     Br  0.45867769  0.64774525  0.50318045    -0.00500
Br2001     Br  0.61394515  0.60614150  0.42764551    -0.00400
Br2002     Br  0.60795336  0.64371677  0.41329944    -0.00400
C2003       C  0.65480218  0.55246986  0.39277231    -0.01500
C2004       C  0.66518018  0.56114249  0.42075275     0.08200
C2005       C  0.70214082  0.57128737  0.42011235    -0.01600
C2006       C  0.72594402  0.57366726  0.39122573    -0.01600
C2007       C  0.71428555  0.56546926  0.36284226     0.08300
C2008       C  0.67942559  0.55449299  0.36421030    -0.01800
Br2009     Br  0.66640143  0.54150640  0.32742191    -0.00400
Br2010     Br  0.60778769  0.53718751  0.39377123    -0.00500
Br2011     Br  0.77231538  0.58916897  0.39028283    -0.00400
Br2012     Br  0.71940395  0.58264093  0.45829313    -0.00400
C2013       C  0.88758374  0.37067551  0.51622218    -0.01500
C2014       C  0.91944999  0.36394730  0.53654487     0.08200
C2015       C  0.94538462  0.37348552  0.55683499    -0.01600
C2016       C  0.93975649  0.38973431  0.55661037    -0.01600
C2017       C  0.90954220  0.39665834  0.53480345     0.08300
C2018       C  0.88343555  0.38689809  0.51460726    -0.01800
Br2019     Br  0.34412628  0.39528896  0.48216670    -0.00400
Br2020     Br  0.35148703  0.35763522  0.48849199    -0.00500
Br2021     Br  0.97292775  0.40219837  0.58702107    -0.00400
Br2022     Br  0.98856579  0.36423537  0.58520552    -0.00400
C2023       C  0.89406153  0.43422628  0.39682504    -0.01500
C2024       C  0.92042619  0.44295381  0.41822321     0.08200
C2025       C  0.95820850  0.45089167  0.40646985    -0.01600
C2026       C  0.96731902  0.45114117  0.37323292    -0.01600
C2027       C  0.93914724  0.44317440  0.35145310     0.08300
C2028       C  0.90388410  0.43404315  0.36376061    -0.01800
Br2029     Br  0.87038378  0.42025352  0.33597714    -0.00400
Br2030     Br  0.84576152  0.42176028  0.41291961    -0.00500
Br2031     Br  0.51793616  0.46283516  0.35838397    -0.00400
Br2032     Br  0.49710822  0.46207322  0.43572332    -0.00400
C2033       C  0.94881273  0.50044488  0.48583641    -0.01500
C2034       C  0.45689080  0.49182330  0.51443097     0.08200
C2035       C  0.48363588  0.49827676  0.53894874    -0.01600
C2036       C  0.50334037  0.51293581  0.53477955    -0.01600
C2037       C  0.49719210  0.52121105  0.50586241     0.08300
C2038       C  0.46867935  0.51516712  0.48198305    -0.01800
Br2039     Br  0.95721901  0.52673690  0.44296203    -0.00400
Br2040     Br  0.91311726  0.49197038  0.45122622    -0.00500
Br2041     Br  0.53588768  0.52222215  0.57003847    -0.00400
Br2042     Br  0.49166786  0.48751554  0.57918427    -0.00400
C2043       C  0.53870168  0.62848091  0.79372422    -0.01500
C2044       C  0.55736521  0.61696609  0.77383084     0.08200
C2045       C  0.58406902  0.62133000  0.74768884    -0.01600
C2046       C  0.59314985  0.63707633  0.74186419    -0.01600
C2047       C  0.57394298  0.64875185  0.76149701     0.08300
C2048       C  0.54670394  0.64431404  0.78758303    -0.01800
Br2049     Br  0.52179835  0.65972009  0.81614677    -0.00400
Br2050     Br  0.50261672  0.62257598  0.82974504    -0.00500
Br2051     Br  0.63068358  0.64226170  0.70581771    -0.00400
Br2052     Br  0.60550120  0.60565794  0.71824151    -0.00400
C2053       C  0.57648764  0.55820810  0.65858762    -0.01500
C2054       C  0.54345709  0.56786960  0.67213236     0.08200
C2055       C  0.52053781  0.57831468  0.65220645    -0.01600
C2056       C  0.52995952  0.57896935  0.61902830    -0.01600
C2057       C  0.56218327  0.56901353  0.60512196     0.08300
C2058       C  0.58609339  0.55885232  0.62538324    -0.01800
Br2059     Br  0.63088093  0.54517225  0.60797561    -0.00400
Br2060     Br  0.60666023  0.54316733  0.68503910    -0.00500
Br2061     Br  0.50005266  0.59435206  0.59333533    -0.00400
Br2062     Br  0.97650202  0.59234041  0.67036948    -0.00400
C2063       C  0.90085709  0.55598499  0.86262213    -0.01500
C2064       C  0.43726989  0.56658979  0.85957761     0.08200
C2065       C  0.44607532  0.57715464  0.88497366    -0.01600
C2066       C  0.91737154  0.57772947  0.91202820    -0.01600
C2067       C  0.88138992  0.56734344  0.91492331     0.08300
C2068       C  0.87413133  0.55616705  0.89052222    -0.01800
Br2069     Br  0.82965755  0.54028932  0.89642771    -0.00400
Br2070     Br  0.39134615  0.54048374  0.83006541    -0.00500
Br2071     Br  0.92729591  0.59349905  0.94441209    -0.00400
Br2072     Br  0.49576864  0.59124044  0.88271284    -0.00400
C2073       C  0.70867084  0.37345123  0.71052540    -0.01500
C2074       C  0.67473570  0.36472766  0.72582507     0.08200
C2075       C  0.63802119  0.37295072  0.73934102    -0.01600
C2076       C  0.63701249  0.38930847  0.73922038    -0.01600
C2077       C  0.67311724  0.39783077  0.72703778     0.08300
C2078       C  0.70863492  0.38982096  0.71226084    -0.01800
Br2079     Br  0.75757297  0.40126303  0.69373880    -0.00400
Br2080     Br  0.75442762  0.36345068  0.68527834    -0.00500
Br2081     Br  0.58691153  0.40004155  0.75806289    -0.00400
Br2082     Br  0.58833056  0.36255031  0.75961360    -0.00400
C2083       C  0.66165534  0.43251155  0.86462774    -0.01500
C2084       C  0.68761107  0.44385881  0.84889678     0.08200
C2085       C  0.70846810  0.45560560  0.86732711    -0.01600
C2086       C  0.70078476  0.45658713  0.90067774    -0.01600
C2087       C  0.67175304  0.44601187  0.91574164     0.08300
C2088       C  0.65349239  0.43366967  0.89786337    -0.01800
Br2089     Br  0.61945484  0.41781303  0.91938592    -0.00400
Br2090     Br  0.63918494  0.41479432  0.84114530    -0.00500
Br2091     Br  0.72910880  0.47282924  0.92542989    -0.00400
Br2092     Br  0.74579418  0.47097178  0.84714594    -0.00400
C2093       C  0.74588833  0.44392304  0.63220418    -0.01500
C2094       C  0.75643863  0.45454694  0.65710260     0.08200
C2095       C  0.79089821  0.46540144  0.65250328    -0.01600
C2096       C  0.81596911  0.46515570  0.62389247    -0.01600
C2097       C  0.80703234  0.45395265  0.59985893     0.08300
C2098       C  0.77162956  0.44344052  0.60401875    -0.01800
Br2099     Br  0.76108893  0.42721858  0.57270307    -0.00400
Br2100     Br  0.69779899  0.42921304  0.63702651    -0.00500
Br2101     Br  0.86209052  0.48039925  0.61739923    -0.00400
Br2102     Br  0.80252191  0.48105173  0.68473741    -0.00400
C2103       C  0.57146240  0.49378673  0.76390898    -0.01500
C2104       C  0.61719118  0.49227678  0.75651062     0.08200
C2105       C  0.64388647  0.50582761  0.75562981    -0.01600
C2106       C  0.62621448  0.52037334  0.76430865    -0.01600
C2107       C  0.58058901  0.52188965  0.77161619     0.08300
C2108       C  0.55322997  0.50850906  0.77091404    -0.01800
Br2109     Br  0.49048257  0.51004035  0.78063044    -0.00400
Br2110     Br  0.53299657  0.47584289  0.76523049    -0.00500
Br2111     Br  0.66499891  0.53829855  0.76421475    -0.00400
Br2112     Br  0.70400674  0.50508145  0.73920598    -0.00400
loop_ 
_geom_bond_atom_site_label_1 
_geom_bond_atom_site_label_2 
_geom_bond_distance 
_geom_bond_site_symmetry_2 
_ccdc_geom_bond_type 
O1            C4   1.276       .  A
O1           Cd6   2.483       .  S
C2           O11   1.268       .  A
C2            O7   1.275       .  A
C2         C1048   1.498       .  S
O3            C9   1.276       .  A
O3           Cd6   2.469       .  S
C4           O12   1.267       .  A
C4         C1021   1.491       .  S
C5           O10   1.275       .  A
C5            O8   1.267       .  A
C5         C1038   1.483       .  S
Cd6          O13   2.405       .  S
Cd6          O12   2.428       .  S
Cd6          O11   2.409       .  S
Cd6           O7   2.497       .  S
Cd6          O10   2.474       .  S
Cd6           O8   2.410       .  S
C9           O13   1.269       .  A
C9         C1028   1.485       .  S
O14          C17   1.276       .  A
O14         Cd19   2.467       .  S
C15          O24   1.268       .  A
C15          O20   1.275       .  A
C15         C988   1.479       .  S
O16          C22   1.279   1_655  A
O16         Cd19   2.480   1_655  S
C17          O25   1.268       .  A
C17        C1051   1.492       .  S
C18          O23   1.276       .  A
C18          O21   1.269   1_655  A
C18        C1008   1.493       .  S
Cd19         O26   2.416       .  S
Cd19         O25   2.409       .  S
Cd19         O24   2.434       .  S
Cd19         O20   2.472       .  S
Cd19         O23   2.493   1_455  S
Cd19         O21   2.432       .  S
C22          O26   1.268       .  A
C22         C998   1.488       .  S
O27        C1086   1.277       .  A
O27       Cd1088   2.462       .  S
C28          O37   1.268       .  A
C28          O33   1.276       .  A
C28         C961   1.496       .  S
O29          C35   1.276       .  A
O29         Cd32   2.455       .  S
C30          O38   1.268       .  A
C30        O1083   1.277       .  A
C30        C2034   1.486       .  S
C31          O36   1.277       .  A
C31          O34   1.266       .  A
C31         C968   1.482       .  S
Cd32         O39   2.416       .  S
Cd32         O38   2.407       .  S
Cd32         O37   2.411       .  S
Cd32         O33   2.478       .  S
Cd32         O36   2.475       .  S
Cd32         O34   2.395       .  S
Cd32       O1083   2.462       .  S
C35          O39   1.271       .  A
C35        C1041   1.481       .  S
O40          C43   1.271       .  A
O40         Cd45   2.479       .  S
C41          O50   1.265       .  A
C41          O46   1.271       .  A
C41         C941   1.471       .  S
O42          C48   1.274       .  A
O42         Cd45   2.514       .  S
C43          O51   1.267       .  A
C43         C981   1.483   1_455  S
C44          O49   1.274       .  A
C44          O47   1.265       .  A
C44         C948   1.497       .  S
Cd45         O52   2.433       .  S
Cd45         O51   2.426       .  S
Cd45         O50   2.407       .  S
Cd45         O46   2.472       .  S
Cd45         O49   2.515       .  S
Cd45         O47   2.437       .  S
C48          O52   1.264       .  A
C48        C1001   1.496       .  S
O53          C56   1.278       .  A
O53         Cd58   2.506       .  S
C54          O63   1.269       .  A
C54          O59   1.277       .  A
C54         C928   1.489       .  S
O55        C1117   1.275       .  A
O55       Cd1114   2.481       .  S
C56          O64   1.264       .  A
C56         C908   1.499       .  S
C57          O62   1.275       .  A
C57        O1116   1.271   1_455  A
C57         C921   1.482       .  S
Cd58         O65   2.390       .  S
Cd58         O64   2.393       .  S
Cd58         O63   2.420       .  S
Cd58         O59   2.484       .  S
Cd58         O60   2.420       .  S
Cd58       O1111   2.481       .  S
Cd58       O1118   2.455       .  S
O60        C1113   1.271       .  A
C61          O65   1.266       .  A
C61        O1111   1.275       .  A
C61         C971   1.490       .  S
O62       Cd1114   2.454   1_455  S
O66          C69   1.277       .  A
O66         Cd71   2.496       .  S
C67          O76   1.269       .  A
C67          O72   1.276       .  A
C67         C888   1.496       .  S
O68          C74   1.277       .  A
O68         Cd71   2.489       .  S
C69          O77   1.266       .  A
C69         C931   1.490       .  S
C70          O75   1.275       .  A
C70          O73   1.269       .  A
C70         C951   1.498       .  S
Cd71         O78   2.396       .  S
Cd71         O77   2.424       .  S
Cd71         O76   2.446       .  S
Cd71         O72   2.501       .  S
Cd71         O75   2.490       .  S
Cd71         O73   2.467       .  S
C74          O78   1.265       .  A
C74         C901   1.491       .  S
O79          C82   1.274       .  A
O79         Cd84   2.489       .  S
C80          O89   1.265   1_556  A
C80          O85   1.272       .  A
C80         C868   1.479       .  S
O81          C87   1.273       .  A
O81         Cd84   2.500   1_554  S
C82          O90   1.266       .  A
C82         C881   1.481   1_556  S
C83          O88   1.272       .  A
C83          O86   1.267       .  A
C83        C1011   1.490       .  S
Cd84         O91   2.421   1_556  S
Cd84         O90   2.405       .  S
Cd84         O89   2.425   1_556  S
Cd84         O85   2.493       .  S
Cd84         O88   2.490       .  S
Cd84         O86   2.459       .  S
C87          O91   1.264       .  A
C87         C898   1.500       .  S
O92          C95   1.278       .  A
O92         Cd97   2.428       .  S
C93         O102   1.271       .  A
C93          O98   1.278       .  A
C93         C858   1.477       .  S
O94         C100   1.278       .  A
O94         Cd97   2.443       .  S
C95         O103   1.272       .  A
C95         C878   1.483       .  S
C96         O101   1.280       .  A
C96          O99   1.271       .  A
C96        C1031   1.477       .  S
Cd97        O104   2.418       .  S
Cd97        O103   2.408       .  S
Cd97        O102   2.405       .  S
Cd97         O98   2.444       .  S
Cd97        O101   2.447   1_554  S
Cd97         O99   2.392   1_554  S
C100        O104   1.272       .  A
C100        C918   1.486       .  S
O105        C108   1.272       .  A
O105       Cd110   2.476       .  S
C106        O115   1.268       .  A
C106        O111   1.274       .  A
C106        C848   1.483       .  S
O107        C113   1.275       .  A
O107       Cd110   2.507       .  S
C108        O116   1.266       .  A
C108        C958   1.479       .  S
C109        O114   1.275       .  A
C109        O112   1.265       .  A
C109       C1894   1.492       .  S
Cd110       O117   2.426       .  S
Cd110       O116   2.435       .  S
Cd110       O115   2.404       .  S
Cd110       O111   2.471       .  S
Cd110       O114   2.503       .  S
Cd110       O112   2.418       .  S
C113        O117   1.265       .  A
C113        C828   1.485       .  S
O118        C121   1.278       .  A
O118       Cd123   2.442       .  S
C119        O128   1.270       .  A
C119        O124   1.278       .  A
C119        C801   1.494       .  S
O120        C126   1.279       .  A
O120       Cd123   2.448       .  S
C121        O129   1.273       .  A
C121        C851   1.487       .  S
C122        O127   1.278       .  A
C122        O125   1.270       .  A
C122        C821   1.490       .  S
Cd123       O130   2.417       .  S
Cd123       O129   2.423       .  S
Cd123       O128   2.403       .  S
Cd123       O124   2.460       .  S
Cd123       O127   2.468       .  S
Cd123       O125   2.402       .  S
C126        O130   1.272       .  A
C126        C808   1.491       .  S
O131        C134   1.276       .  A
O131      Cd1192   2.468       .  S
C132        O137   1.274       .  A
C132       O1197   1.266       .  A
C132        C758   1.493       .  S
O133        C139   1.276       .  A
O133       Cd136   2.487   1_554  S
C134       O1198   1.268       .  A
C134        C788   1.474       .  S
C135        O140   1.275       .  A
C135        O138   1.269       .  A
C135        C778   1.481       .  S
Cd136       O142   2.392       .  S
Cd136       O141   2.409       .  S
Cd136       O140   2.470       .  S
Cd136       O138   2.412       .  S
Cd136      O1187   2.468       .  S
Cd136      O1199   2.380   1_556  S
Cd136      O1193   2.494       .  S
O137      Cd1192   2.494       .  S
C139       O1199   1.265       .  A
C139        C768   1.482       .  S
O141       C1188   1.266       .  A
O142       C1190   1.268       .  A
O143       C1195   1.265       .  A
O143      Cd1192   2.380   1_554  S
O144        C147   1.277       .  A
O144       Cd149   2.461       .  S
C145        O154   1.266       .  A
C145        O150   1.276       .  A
C145        C861   1.487       .  S
O146        C152   1.275       .  A
O146       Cd149   2.463       .  S
C147        O155   1.269       .  A
C147        C791   1.476       .  S
C148        O153   1.277       .  A
C148        O151   1.267       .  A
C148        C741   1.490       .  S
Cd149       O156   2.433       .  S
Cd149       O155   2.402       .  S
Cd149       O154   2.385       .  S
Cd149       O150   2.476       .  S
Cd149       O153   2.478   1_554  S
Cd149       O151   2.399   1_554  S
C152        O156   1.270       .  A
C152        C748   1.487       .  S
O157        C160   1.276       .  A
O157      Cd1218   2.457       .  S
C158        O163   1.275       .  A
C158       O1223   1.268       .  A
C158        C721   1.494       .  S
O159        C165   1.276       .  A
O159       Cd162   2.451       .  S
C160        O168   1.267       .  A
C160        C728   1.484       .  S
C161        O166   1.275       .  A
C161        O164   1.268       .  A
C161        C818   1.491       .  S
Cd162       O167   2.410       .  S
Cd162       O166   2.475       .  S
Cd162       O164   2.417       .  S
Cd162      O1213   2.457       .  S
Cd162      O1225   2.422       .  S
Cd162      O1224   2.409       .  S
Cd162      O1219   2.482       .  S
O163      Cd1218   2.481       .  S
C165       O1225   1.268       .  A
C165       C1827   1.480       .  S
O167       C1214   1.268       .  A
O168      Cd1218   2.409       .  S
O169       C1221   1.268       .  A
O169      Cd1218   2.422       .  S
O170        C173   1.274       .  A
O170       Cd175   2.501       .  S
C171        O180   1.267       .  A
C171        O176   1.274       .  A
C171        C731   1.487       .  S
O172        C178   1.274       .  A
O172       Cd175   2.490       .  S
C173        O181   1.266       .  A
C173        C911   1.483       .  S
C174        O179   1.274       .  A
C174        O177   1.267       .  A
C174        C751   1.486       .  S
Cd175       O182   2.410       .  S
Cd175       O181   2.414       .  S
Cd175       O180   2.421       .  S
Cd175       O176   2.484       .  S
Cd175       O179   2.485       .  S
Cd175       O177   2.423       .  S
C178        O182   1.265       .  A
C178        C831   1.486       .  S
O183        C186   1.276       .  A
O183       Cd188   2.501       .  S
C184        O193   1.268       .  A
C184        O189   1.276       .  A
C184        C711   1.493       .  S
O185        C191   1.276       .  A
O185       Cd188   2.487       .  S
C186        O194   1.265       .  A
C186       C1018   1.509       .  S
C187        O192   1.276       .  A
C187        O190   1.270       .  A
C187        C841   1.488       .  S
Cd188       O195   2.421       .  S
Cd188       O194   2.391       .  S
Cd188       O193   2.421       .  S
Cd188       O189   2.485       .  S
Cd188       O192   2.472       .  S
Cd188       O190   2.420       .  S
C191        O195   1.267       .  A
C191        C738   1.485       .  S
O196        C199   1.274       .  A
O196       Cd201   2.483       .  S
C197        O206   1.267       .  A
C197        O202   1.273       .  A
C197        C708   1.490       .  S
O198        C204   1.275       .  A
O198       Cd201   2.466       .  S
C199        O207   1.268       .  A
C199        C698   1.485       .  S
C200        O205   1.276       .  A
C200        O203   1.264       .  A
C200        C811   1.479       .  S
Cd201       O208   2.399       .  S
Cd201       O207   2.411       .  S
Cd201       O206   2.433       .  S
Cd201       O202   2.466       .  S
Cd201       O205   2.506       .  S
Cd201       O203   2.379       .  S
C204        O208   1.268       .  A
C204        C781   1.477       .  S
O209        C212   1.276       .  A
O209       Cd214   2.494       .  S
C210        O219   1.269       .  A
C210        O215   1.276       .  A
C210        C688   1.481       .  S
O211        C217   1.276       .  A
O211       Cd214   2.491       .  S
C212        O220   1.266       .  A
C212        C661   1.483       .  S
C213        O218   1.275       .  A
C213        O216   1.269       .  A
C213        C681   1.488       .  S
Cd214       O221   2.402       .  S
Cd214       O220   2.395       .  S
Cd214       O219   2.420       .  S
Cd214       O215   2.463       .  S
Cd214       O218   2.479       .  S
Cd214       O216   2.444       .  S
C217        O221   1.265       .  A
C217        C671   1.494       .  S
O222        C225   1.275       .  A
O222       Cd227   2.505       .  S
C223        O232   1.265       .  A
C223        O228   1.275       .  A
C223        C798   1.495       .  S
O224        C230   1.274       .  A
O224       Cd227   2.474       .  S
C225        O233   1.266       .  A
C225        C691   1.485       .  S
C226        O231   1.274       .  A
C226        O229   1.266       .  A
C226        C648   1.486       .  S
Cd227       O234   2.426       .  S
Cd227       O233   2.427       .  S
Cd227       O232   2.413       .  S
Cd227       O228   2.498       .  S
Cd227       O231   2.488       .  S
Cd227       O229   2.417       .  S
C230        O234   1.268       .  A
C230        C638   1.487       .  S
O235        C238   1.279       .  A
O235      Cd1296   2.415       .  S
C236        O245   1.274       .  A
C236       O1297   1.280       .  A
C236        C761   1.479       .  S
O237        C243   1.280       .  A
O237       Cd240   2.412   1_554  S
C238       O1302   1.274       .  A
C238        C628   1.481       .  S
C239        O244   1.279       .  A
C239        O242   1.274       .  A
C239        C618   1.481       .  S
Cd240       O246   2.418       .  S
Cd240       O245   2.406       .  S
Cd240       O244   2.430       .  S
Cd240       O242   2.403       .  S
Cd240      O1291   2.415       .  S
Cd240      O1303   2.400   1_556  S
Cd240      O1297   2.428       .  S
O241       C1292   1.280       .  A
O241      Cd1296   2.428       .  S
C243       O1303   1.274       .  A
C243        C608   1.476       .  S
O246       C1294   1.274       .  A
O247       C1299   1.274       .  A
O247      Cd1296   2.400   1_554  S
O248       C1307   1.273   1_455  A
O248      Cd1309   2.483   1_455  S
C249        O258   1.264       .  A
C249       O1310   1.273       .  A
C249        C578   1.484       .  S
O250        C256   1.273       .  A
O250       Cd253   2.496       .  S
C251        O259   1.267       .  A
C251       O1304   1.273       .  A
C251        C631   1.475       .  S
C252        O257   1.275       .  A
C252        O255   1.266       .  A
C252        C591   1.488       .  S
Cd253       O260   2.424       .  S
Cd253       O259   2.401       .  S
Cd253       O258   2.392       .  S
Cd253       O257   2.495   1_554  S
Cd253       O255   2.398   1_554  S
Cd253      O1304   2.484       .  S
Cd253      O1310   2.497       .  S
O254       C1305   1.273       .  A
O254      Cd1309   2.497       .  S
C256        O260   1.266       .  A
C256        C598   1.489       .  S
O261        C264   1.275       .  A
O261       Cd266   2.469       .  S
C262        O267   1.275       .  A
C262       O1327   1.266       .  A
C262        C718   1.495       .  S
O263        C269   1.276       .  A
O263      Cd1322   2.486       .  S
C264        O272   1.269       .  A
C264        C568   1.480       .  S
C265        O270   1.276       .  A
C265        O268   1.266       .  A
C265        C651   1.486       .  S
Cd266       O273   2.396       .  S
Cd266       O272   2.417       .  S
Cd266       O267   2.487       .  S
Cd266      O1319   2.486   1_455  S
Cd266      O1327   2.406       .  S
Cd266      O1326   2.475   1_455  S
Cd266      O1324   2.412       .  S
O268      Cd1322   2.412       .  S
C269       O1329   1.268       .  A
C269       C1667   1.486       .  S
O270      Cd1322   2.476       .  S
O271       C1318   1.266       .  A
O271      Cd1322   2.406       .  S
O273       C1325   1.268       .  A
O274        C277   1.277       .  A
O274       Cd279   2.467       .  S
C275        O284   1.268       .  A
C275        O280   1.277       .  A
C275        C571   1.483       .  S
O276        C282   1.277       .  A
O276       Cd279   2.460       .  S
C277        O285   1.269       .  A
C277        C558   1.476       .  S
C278        O283   1.275       .  A
C278        O281   1.270       .  A
C278        C601   1.486       .  S
Cd279       O286   2.415       .  S
Cd279       O285   2.404       .  S
Cd279       O284   2.397       .  S
Cd279       O280   2.474       .  S
Cd279       O283   2.468       .  S
Cd279       O281   2.436       .  S
C282        O286   1.268       .  A
C282        C668   1.488       .  S
O287        C290   1.277       .  A
O287       Cd292   2.500       .  S
C288        O297   1.266       .  A
C288        O293   1.276       .  A
C288        C541   1.500       .  S
O289        C295   1.276   1_455  A
O289      Cd1348   2.492   1_455  S
C290        O298   1.267       .  A
C290        C551   1.495       .  S
C291        O294   1.267       .  A
C291       O1352   1.276       .  A
C291        C588   1.484       .  S
Cd292       O299   2.432       .  S
Cd292       O298   2.411       .  S
Cd292       O297   2.428       .  S
Cd292       O293   2.507       .  S
Cd292       O294   2.412       .  S
Cd292      O1345   2.492       .  S
Cd292      O1352   2.507       .  S
C295       O1355   1.269       .  A
C295        C678   1.490   1_655  S
O296       C1347   1.276       .  A
O296      Cd1348   2.507       .  S
O299       C1351   1.269       .  A
O300        C303   1.276       .  A
O300       Cd305   2.487       .  S
C301        O310   1.267       .  A
C301        O306   1.275       .  A
C301        C701   1.477       .  S
O302        C308   1.276       .  A
O302       Cd305   2.487       .  S
C303        O311   1.267       .  A
C303        C548   1.494       .  S
C304        O309   1.275       .  A
C304        O307   1.268       .  A
C304        C621   1.480       .  S
Cd305       O312   2.407       .  S
Cd305       O311   2.425       .  S
Cd305       O310   2.433       .  S
Cd305       O306   2.481       .  S
Cd305       O309   2.462       .  S
Cd305       O307   2.420       .  S
C308        O312   1.267       .  A
C308        C641   1.480       .  S
O313       C1372   1.273       .  A
O313      Cd1374   2.470       .  S
C314        O323   1.267       .  A
C314       O1375   1.273       .  A
C314       C1584   1.485       .  S
O315        C321   1.276       .  A
O315       Cd318   2.519       .  S
C316        O324   1.267       .  A
C316       O1369   1.273       .  A
C316        C538   1.484       .  S
C317        O322   1.275       .  A
C317        O320   1.266       .  A
C317        C518   1.498       .  S
Cd318       O325   2.427       .  S
Cd318       O324   2.450       .  S
Cd318       O323   2.419       .  S
Cd318       O322   2.518       .  S
Cd318       O320   2.432       .  S
Cd318      O1369   2.470       .  S
Cd318      O1375   2.472       .  S
O319       C1370   1.273       .  A
O319      Cd1374   2.473       .  S
C321        O325   1.265       .  A
C321        C508   1.484       .  S
O326        C329   1.272       .  A
O326       Cd331   2.475       .  S
C327        O336   1.265       .  A
C327        O332   1.272       .  A
C327        C991   1.490       .  S
O328        C334   1.273       .  A
O328       Cd331   2.486       .  S
C329        O337   1.266       .  A
C329        C531   1.486       .  S
C330        O335   1.273       .  A
C330        O333   1.267       .  A
C330        C498   1.485       .  S
Cd331       O338   2.416       .  S
Cd331       O337   2.460       .  S
Cd331       O336   2.424       .  S
Cd331       O332   2.491       .  S
Cd331       O335   2.497       .  S
Cd331       O333   2.413       .  S
C334        O338   1.264       .  A
C334        C488   1.482       .  S
O339        C342   1.270       .  A
O339       Cd344   2.480       .  S
C340        O349   1.266       .  A
C340        O345   1.271       .  A
C340        C478   1.470       .  S
O341       C1403   1.274       .  A
O341      Cd1400   2.528   1_556  S
C342        O350   1.265       .  A
C342        C581   1.491       .  S
C343        O348   1.273       .  A
C343       O1402   1.265       .  A
C343        C468   1.492   1_655  S
Cd344       O351   2.430   1_554  S
Cd344       O350   2.430       .  S
Cd344       O349   2.402       .  S
Cd344       O345   2.489       .  S
Cd344       O346   2.439       .  S
Cd344      O1397   2.527   1_554  S
Cd344      O1404   2.499       .  S
O346       C1399   1.265       .  A
C347        O351   1.265       .  A
C347       O1397   1.274       .  A
C347        C511   1.493       .  S
O348      Cd1400   2.499       .  S
O352        C355   1.270       .  A
O352       Cd357   2.389       .  S
C353        O362   1.278       .  A
C353        O358   1.270       .  A
C353        C871   1.479       .  S
O354        C360   1.269       .  A
O354       Cd357   2.394   1_554  S
C355        O363   1.278   1_556  A
C355        C481   1.477       .  S
C356        O361   1.271       .  A
C356        O359   1.277       .  A
C356        C501   1.492       .  S
Cd357       O364   2.504       .  S
Cd357       O363   2.474   1_556  S
Cd357       O362   2.490       .  S
Cd357       O358   2.385       .  S
Cd357       O361   2.402       .  S
Cd357       O359   2.495       .  S
C360        O364   1.278   1_554  A
C360        C458   1.479       .  S
O365        C368   1.275       .  A
O365       Cd370   2.465       .  S
C366        O375   1.267       .  A
C366        O371   1.275       .  A
C366        C451   1.484       .  S
O367        C373   1.277       .  A
O367       Cd370   2.509       .  S
C368        O376   1.268       .  A
C368        C658   1.473       .  S
C369        O374   1.276       .  A
C369        O372   1.269       .  A
C369        C521   1.492       .  S
Cd370       O377   2.440       .  S
Cd370       O376   2.422       .  S
Cd370       O375   2.395       .  S
Cd370       O371   2.482       .  S
Cd370       O374   2.487       .  S
Cd370       O372   2.439       .  S
C373        O377   1.266       .  A
C373        C441   1.496       .  S
O378        C381   1.279       .  A
O378       Cd383   2.407       .  S
C379        O388   1.273       .  A
C379        O384   1.278       .  A
C379        C938   1.494       .  S
O380        C386   1.281       .  A
O380       Cd383   2.435       .  S
C381        O389   1.275       .  A
C381        C448   1.485       .  S
C382        O387   1.279   1_455  A
C382        O385   1.276       .  A
C382        C428   1.479   1_455  S
Cd383       O390   2.398       .  S
Cd383       O389   2.398       .  S
Cd383       O388   2.398       .  S
Cd383       O384   2.427       .  S
Cd383       O387   2.437   1_455  S
Cd383       O385   2.393       .  S
C386        O390   1.274       .  A
C386        C491   1.476       .  S
O391        C394   1.271       .  A
O391       Cd396   2.490       .  S
C392        O401   1.265       .  A
C392        O397   1.271       .  A
C392        C891   1.490       .  S
O393        C399   1.271       .  A
O393       Cd396   2.521       .  S
C394        O402   1.265       .  A
C394        C418   1.491       .  S
C395        O400   1.271       .  A
C395        O398   1.265       .  A
C395        C431   1.483       .  S
Cd396       O403   2.438       .  S
Cd396       O402   2.472       .  S
Cd396       O401   2.470       .  S
Cd396       O397   2.513       .  S
Cd396       O400   2.491       .  S
Cd396       O398   2.439       .  S
C399        O403   1.264       .  A
C399        C461   1.487       .  S
O404        C407   1.273       .  A
O404       Cd409   2.492       .  S
C405        O414   1.264       .  A
C405        O410   1.273       .  A
C405        C561   1.485       .  S
O406        C412   1.272       .  A
O406       Cd409   2.491       .  S
C407        O415   1.268       .  A
C407        C421   1.490       .  S
C408        O413   1.273       .  A
C408        O411   1.265       .  A
C408        C438   1.505       .  S
Cd409       O416   2.460       .  S
Cd409       O415   2.441       .  S
Cd409       O414   2.425       .  S
Cd409       O410   2.522       .  S
Cd409       O413   2.510       .  S
Cd409       O411   2.454       .  S
C412        O416   1.266       .  A
C412        C471   1.486       .  S
C417        C418   1.416       .  A
C417        C422   1.414       .  A
C417       Br424   1.931       .  S
C418        C419   1.412       .  A
C419        C420   1.410       .  A
C419       Br426   1.933       .  S
C420        C421   1.413       .  A
C420       Br425   1.929       .  S
C421        C422   1.413       .  A
C422       Br423   1.933       .  S
C427        C428   1.410   1_455  A
C427        C432   1.407   1_455  A
C427       Br434   1.932       .  S
C428       C1485   1.410       .  A
C429        C430   1.411       .  A
C429       C1484   1.410       .  A
C429       Br436   1.931       .  S
C430        C431   1.413       .  A
C430       Br435   1.929       .  S
C431       C1488   1.411       .  A
C432       C1487   1.411       .  A
C432       Br433   1.931   1_655  S
C437        C438   1.424       .  A
C437        C442   1.415       .  A
C437       Br444   1.935       .  S
C438        C439   1.417       .  A
C439        C440   1.414       .  A
C439       Br446   1.934       .  S
C440        C441   1.417       .  A
C440       Br445   1.935       .  S
C441        C442   1.409       .  A
C442       Br443   1.933       .  S
C447        C448   1.418       .  A
C447        C452   1.412       .  A
C447       Br454   1.936       .  S
C448        C449   1.411       .  A
C449        C450   1.406       .  A
C449       Br456   1.936       .  S
C450        C451   1.416       .  A
C450       Br455   1.937       .  S
C451        C452   1.411       .  A
C452       Br453   1.932       .  S
C457        C458   1.406       .  A
C457        C462   1.409       .  A
C457       Br464   1.928       .  S
C458        C459   1.409       .  A
C459        C460   1.414       .  A
C459       Br466   1.928       .  S
C460        C461   1.414       .  A
C460       Br465   1.929       .  S
C461        C462   1.412       .  A
C462       Br463   1.928       .  S
C467        C468   1.413       .  A
C467        C472   1.413       .  A
C467       Br474   1.931       .  S
C468        C469   1.418       .  A
C469        C470   1.410       .  A
C469      Br1532   1.935   1_455  S
C470        C471   1.409       .  A
C470      Br1531   1.934       .  S
C471        C472   1.412       .  A
C472       Br473   1.927       .  S
Br475      C1526   1.934       .  S
Br476      C1525   1.935       .  S
C477        C478   1.406       .  A
C477        C482   1.411       .  A
C477       Br484   1.927       .  S
C478        C479   1.405   1_554  A
C479        C480   1.404       .  A
C479       Br486   1.931       .  S
C480        C481   1.412       .  A
C480       Br485   1.928       .  S
C481        C482   1.413   1_556  A
C482       Br483   1.930       .  S
C487        C488   1.412       .  A
C487        C492   1.409       .  A
C487       Br494   1.931       .  S
C488        C489   1.415       .  A
C489        C490   1.408       .  A
C489       Br496   1.931       .  S
C490        C491   1.406       .  A
C490      Br1551   1.929       .  S
C491        C492   1.411       .  A
C492       Br493   1.931       .  S
Br495      C1546   1.929       .  S
C497        C498   1.410       .  A
C497        C502   1.406       .  A
C497       Br504   1.934       .  S
C498        C499   1.413       .  A
C499        C500   1.416       .  A
C499       Br506   1.931       .  S
C500        C501   1.416       .  A
C500       Br505   1.930       .  S
C501        C502   1.414       .  A
C502       Br503   1.932       .  S
C507        C508   1.411       .  A
C507        C512   1.417       .  A
C507       Br514   1.930       .  S
C508        C509   1.407       .  A
C509        C510   1.409       .  A
C509       Br516   1.931       .  S
C510        C511   1.415       .  A
C510       Br515   1.932       .  S
C511        C512   1.416       .  A
C512       Br513   1.930       .  S
C517        C518   1.414       .  A
C517        C522   1.415       .  A
C517       Br524   1.930       .  S
C518        C519   1.420       .  A
C519        C520   1.412       .  A
C519       Br526   1.935       .  S
C520        C521   1.410       .  A
C520       Br525   1.934       .  S
C521        C522   1.414       .  A
C522       Br523   1.932       .  S
C527        C528   1.413   1_455  A
C527        C532   1.412       .  A
C527       Br534   1.934       .  S
C528       C1370   1.485       .  S
C528       C1585   1.413       .  A
C529       C1584   1.413       .  A
C529       C1586   1.408       .  A
C529       Br536   1.934       .  S
C530        C531   1.411   1_655  A
C530       C1585   1.408       .  A
C530      Br1591   1.933       .  S
C531        C532   1.415       .  A
C532       Br533   1.930       .  S
Br535      C1586   1.933       .  S
C537        C538   1.411       .  A
C537        C542   1.415       .  A
C537       Br544   1.932       .  S
C538        C539   1.406       .  A
C539        C540   1.410       .  A
C539      Br1602   1.936       .  S
C540        C541   1.423       .  A
C540      Br1601   1.931       .  S
C541        C542   1.418       .  A
C542       Br543   1.932       .  S
Br545      C1596   1.931   1_455  S
Br546      C1595   1.936       .  S
C547        C548   1.413       .  A
C547        C552   1.411       .  A
C547       Br554   1.934       .  S
C548        C549   1.419       .  A
C549        C550   1.414   1_545  A
C549       Br556   1.935       .  S
C550        C551   1.414       .  A
C550       Br555   1.933       .  S
C551        C552   1.416   1_565  A
C552       Br553   1.934       .  S
C557        C558   1.408       .  A
C557        C562   1.413       .  A
C557       Br564   1.930       .  S
C558        C559   1.408       .  A
C559        C560   1.406       .  A
C559       Br566   1.933       .  S
C560        C561   1.414       .  A
C560       Br565   1.931       .  S
C561        C562   1.413       .  A
C562       Br563   1.926       .  S
C567        C568   1.408       .  A
C567        C572   1.409   1_545  A
C567       Br574   1.932       .  S
C568        C569   1.413       .  A
C569        C570   1.409   1_545  A
C569      Br1632   1.929       .  S
C570        C571   1.410       .  A
C570       Br575   1.932       .  S
C571        C572   1.418       .  A
C572       Br573   1.934       .  S
Br576      C1625   1.929       .  S
C577        C578   1.414       .  A
C577        C582   1.407       .  A
C577       Br584   1.936       .  S
C578       C1635   1.409       .  A
C579       C1634   1.409       .  A
C579       C1636   1.411       .  A
C579       Br586   1.932   1_655  S
C580        C581   1.420       .  A
C580       C1635   1.410       .  A
C580      Br1641   1.934       .  S
C581        C582   1.414       .  A
C582       Br583   1.933       .  S
Br585      C1636   1.934   1_455  S
C587        C588   1.413       .  A
C587        C592   1.411       .  A
C587       Br594   1.932       .  S
C588       C1645   1.407       .  A
C589       C1644   1.407       .  A
C589       C1646   1.409       .  A
C589       Br596   1.925   1_655  S
C590        C591   1.416       .  A
C590       C1645   1.409       .  A
C590      Br1651   1.936       .  S
C591        C592   1.414       .  A
C592       Br593   1.932       .  S
Br595      C1646   1.936       .  S
C597        C598   1.412       .  A
C597        C602   1.413       .  A
C597       Br604   1.930       .  S
C598        C599   1.417       .  A
C599        C600   1.409       .  A
C599       Br606   1.936       .  S
C600        C601   1.410       .  A
C600       Br605   1.933       .  S
C601        C602   1.414       .  A
C602       Br603   1.932       .  S
C607        C612   1.411       .  A
C607       C1664   1.412       .  A
C607       Br614   1.933       .  S
C608        C609   1.406       .  A
C608       C1663   1.412       .  A
C609        C610   1.406       .  A
C609       Br616   1.933       .  S
C610        C611   1.415       .  A
C610       Br615   1.933       .  S
C611       C1325   1.486       .  S
C611       C1668   1.415       .  A
C612       C1667   1.415       .  A
C612       Br613   1.930       .  S
C617        C618   1.411       .  A
C617        C622   1.409       .  A
C617       Br624   1.932       .  S
C618        C619   1.414       .  A
C619        C620   1.408       .  A
C619       Br626   1.933       .  S
C620        C621   1.410       .  A
C620       Br625   1.933       .  S
C621        C622   1.413       .  A
C622       Br623   1.932       .  S
C627        C632   1.412   1_545  A
C627       C1684   1.418   1_554  A
C627       Br634   1.932       .  S
C628        C629   1.409       .  A
C628       C1683   1.418   1_556  A
C629        C630   1.404   1_545  A
C629       Br636   1.932       .  S
C630        C631   1.410   1_556  A
C630       Br635   1.930       .  S
C631       C1688   1.407       .  A
C632       C1687   1.407       .  A
C632       Br633   1.930       .  S
C637        C638   1.417       .  A
C637        C642   1.412       .  A
C637       Br644   1.932       .  S
C638        C639   1.413       .  A
C639        C640   1.408       .  A
C639       Br646   1.932       .  S
C640        C641   1.411       .  A
C640       Br645   1.932       .  S
C641        C642   1.408       .  A
C642       Br643   1.930       .  S
C647        C648   1.412       .  A
C647        C652   1.410       .  A
C647       Br654   1.931       .  S
C648        C649   1.414       .  A
C649        C650   1.410       .  A
C649       Br656   1.932       .  S
C650        C651   1.410       .  A
C650       Br655   1.931       .  S
C651        C652   1.417       .  A
C652      Br1709   1.937       .  S
Br653      C1708   1.937   1_455  S
C657        C658   1.405       .  A
C657        C662   1.405       .  A
C657       Br664   1.933       .  S
C658        C659   1.410       .  A
C659        C660   1.413       .  A
C659       Br666   1.929       .  S
C660        C661   1.413       .  A
C660       Br665   1.929       .  S
C661        C662   1.416       .  A
C662       Br663   1.934       .  S
C667        C668   1.417       .  A
C667        C672   1.412       .  A
C667       Br674   1.935       .  S
C668        C669   1.409       .  A
C669        C670   1.409       .  A
C669       Br676   1.935       .  S
C670        C671   1.420       .  A
C670       Br675   1.936       .  S
C671        C672   1.415       .  A
C672       Br673   1.933       .  S
C677        C678   1.412       .  A
C677        C682   1.413       .  A
C677       Br684   1.929       .  S
C678        C679   1.416       .  A
C679        C680   1.411       .  A
C679      Br1742   1.933   1_455  S
C680        C681   1.411       .  A
C680       Br685   1.932       .  S
C681        C682   1.414       .  A
C682       Br683   1.930       .  S
Br686      C1735   1.933       .  S
C687        C688   1.415       .  A
C687        C692   1.412   1_565  A
C687       Br694   1.934       .  S
C688        C689   1.407       .  A
C689        C690   1.408   1_565  A
C689       Br696   1.931       .  S
C690        C691   1.414       .  A
C690       Br695   1.928       .  S
C691        C692   1.410       .  A
C692       Br693   1.929       .  S
C697        C698   1.415       .  A
C697        C702   1.405       .  A
C697       Br704   1.932       .  S
C698        C699   1.414       .  A
C699        C700   1.414       .  A
C699       Br706   1.931       .  S
C700        C701   1.411       .  A
C700       Br705   1.928       .  S
C701        C702   1.406       .  A
C702       Br703   1.933       .  S
C707        C708   1.418       .  A
C707        C712   1.412       .  A
C707       Br714   1.936       .  S
C708        C709   1.411       .  A
C709        C710   1.410       .  A
C709       Br716   1.936       .  S
C710        C711   1.419       .  A
C710       Br715   1.935       .  S
C711        C712   1.413       .  A
C712       Br713   1.933       .  S
C717        C718   1.413       .  A
C717        C722   1.409       .  A
C717       Br724   1.933       .  S
C718       C1775   1.420       .  A
C719        C720   1.412       .  A
C719       C1774   1.421       .  A
C719       Br726   1.937       .  S
C720        C721   1.413       .  A
C720       Br725   1.934       .  S
C721       C1778   1.416       .  A
C722       C1777   1.417       .  A
C722       Br723   1.934       .  S
C727        C728   1.408       .  A
C727        C732   1.407       .  A
C727       Br734   1.936       .  S
C728        C729   1.418       .  A
C729        C730   1.411       .  A
C729       Br736   1.934       .  S
C730        C731   1.410       .  A
C730       Br735   1.933       .  S
C731        C732   1.416       .  A
C732       Br733   1.927       .  S
C737        C738   1.409       .  A
C737        C742   1.410       .  A
C737       Br744   1.932       .  S
C738        C739   1.415       .  A
C739        C740   1.411       .  A
C739       Br746   1.932       .  S
C740        C741   1.413       .  A
C740       Br745   1.933       .  S
C741        C742   1.417       .  A
C742       Br743   1.935       .  S
C747        C748   1.416       .  A
C747        C752   1.411       .  A
C747       Br754   1.934       .  S
C748        C749   1.411       .  A
C749        C750   1.410       .  A
C749       Br756   1.932       .  S
C750        C751   1.414       .  A
C750       Br755   1.933       .  S
C751        C752   1.412       .  A
C752       Br753   1.932       .  S
C757        C758   1.416       .  A
C757        C762   1.413       .  A
C757       Br764   1.931       .  S
C758       C1815   1.421       .  A
C759        C760   1.407       .  A
C759       C1814   1.421       .  A
C759       Br766   1.936   1_556  S
C760       C1817   1.406       .  A
C760       Br765   1.935   1_556  S
C761        C762   1.411       .  A
C761       C1816   1.406       .  A
C762       Br763   1.932       .  S
C767        C772   1.406       .  A
C767       C1824   1.417       .  A
C767       Br774   1.935       .  S
C768        C769   1.412       .  A
C768       C1823   1.417       .  A
C769        C770   1.410       .  A
C769       Br776   1.933       .  S
C770        C771   1.415       .  A
C770       Br775   1.932       .  S
C771       C1221   1.480       .  S
C771       C1828   1.407       .  A
C772       C1827   1.407       .  A
C772       Br773   1.933       .  S
C777        C778   1.411       .  A
C777        C782   1.409       .  A
C777       Br784   1.930       .  S
C778        C779   1.414       .  A
C779        C780   1.408       .  A
C779      Br1842   1.934       .  S
C780        C781   1.409       .  A
C780       Br785   1.932       .  S
C781        C782   1.412       .  A
C782       Br783   1.933       .  S
Br786      C1835   1.934       .  S
C787        C788   1.412   1_554  A
C787        C792   1.406       .  A
C787       Br794   1.931       .  S
C788        C789   1.407       .  A
C789        C790   1.409       .  A
C789       Br796   1.930       .  S
C790        C791   1.414   1_556  A
C790       Br795   1.931       .  S
C791        C792   1.408       .  A
C792       Br793   1.930       .  S
C797        C798   1.413       .  A
C797        C802   1.412       .  A
C797       Br804   1.933       .  S
C798        C799   1.420       .  A
C799        C800   1.410       .  A
C799       Br806   1.932       .  S
C800        C801   1.412       .  A
C800       Br805   1.936       .  S
C801        C802   1.418       .  A
C802       Br803   1.935       .  S
C807        C808   1.419       .  A
C807        C812   1.413       .  A
C807       Br814   1.931       .  S
C808        C809   1.414       .  A
C809        C810   1.406       .  A
C809       Br816   1.933       .  S
C810        C811   1.411       .  A
C810       Br815   1.935       .  S
C811        C812   1.407       .  A
C812       Br813   1.930       .  S
C817        C818   1.417       .  A
C817        C822   1.412       .  A
C817       Br824   1.934       .  S
C818        C819   1.413       .  A
C819        C820   1.410       .  A
C819       Br826   1.934       .  S
C820        C821   1.417       .  A
C820       Br825   1.937       .  S
C821        C822   1.411       .  A
C822       Br823   1.932       .  S
C827        C828   1.408       .  A
C827        C832   1.410       .  A
C827      Br1890   1.929       .  S
C828        C829   1.414       .  A
C829        C830   1.410       .  A
C829       Br836   1.929       .  S
C830        C831   1.411       .  A
C830       Br835   1.932       .  S
C831        C832   1.415       .  A
C832       Br833   1.930       .  S
Br834      C1883   1.929   1_455  S
C837       C1894   1.419       .  A
C837       C1898   1.410       .  A
C837       Br844   1.936       .  S
C838       C1165   1.492       .  S
C838        C839   1.413       .  A
C838       C1893   1.419       .  A
C839        C840   1.413       .  A
C839       Br846   1.930       .  S
C840        C841   1.415       .  A
C840       Br845   1.933       .  S
C841        C842   1.411       .  A
C842       C1893   1.410       .  A
C842      Br1899   1.935       .  S
Br843      C1898   1.935       .  S
C847        C848   1.413       .  A
C847        C852   1.412       .  A
C847       Br854   1.934       .  S
C848        C849   1.412       .  A
C849        C850   1.408       .  A
C849       Br856   1.935       .  S
C850        C851   1.413       .  A
C850       Br855   1.933       .  S
C851        C852   1.416       .  A
C852       Br853   1.932       .  S
C857        C858   1.411       .  A
C857        C862   1.411       .  A
C857       Br864   1.931       .  S
C858        C859   1.407       .  A
C859        C860   1.407       .  A
C859       Br866   1.935   1_554  S
C860        C861   1.420       .  A
C860       Br865   1.938   1_554  S
C861        C862   1.414       .  A
C862       Br863   1.931       .  S
C867        C868   1.409       .  A
C867        C872   1.409       .  A
C867       Br874   1.929       .  S
C868        C869   1.413   1_556  A
C869        C870   1.409       .  A
C869       Br876   1.929       .  S
C870        C871   1.408   1_554  A
C870       Br875   1.929       .  S
C871        C872   1.411       .  A
C872       Br873   1.930       .  S
C877        C878   1.419   1_556  A
C877        C882   1.411       .  A
C877       Br884   1.934       .  S
C878        C879   1.410       .  A
C879        C880   1.406       .  A
C879       Br886   1.934       .  S
C880        C881   1.414       .  A
C880       Br885   1.935       .  S
C881        C882   1.409   1_554  A
C882       Br883   1.931       .  S
C887        C888   1.412       .  A
C887        C892   1.415       .  A
C887       Br894   1.929       .  S
C888        C889   1.418       .  A
C889        C890   1.413       .  A
C889       Br896   1.933       .  S
C890        C891   1.409       .  A
C890       Br895   1.932       .  S
C891        C892   1.414       .  A
C892       Br893   1.929       .  S
C897        C898   1.417       .  A
C897        C902   1.412       .  A
C897       Br904   1.935       .  S
C898        C899   1.423       .  A
C899        C900   1.412       .  A
C899       Br906   1.936       .  S
C900        C901   1.410       .  A
C900       Br905   1.935       .  S
C901        C902   1.418       .  A
C902       Br903   1.938       .  S
C907        C908   1.426       .  A
C907        C912   1.410       .  A
C907       Br914   1.937       .  S
C908        C909   1.417       .  A
C909        C910   1.412       .  A
C909      Br1972   1.931       .  S
C910        C911   1.410       .  A
C910      Br1971   1.932       .  S
C911        C912   1.405       .  A
C912       Br913   1.932       .  S
Br915      C1966   1.932       .  S
Br916      C1965   1.931       .  S
C917        C918   1.412       .  A
C917        C922   1.409       .  A
C917      Br1980   1.932       .  S
C918        C919   1.416       .  A
C919        C920   1.410       .  A
C919       Br926   1.934       .  S
C920        C921   1.412       .  A
C920       Br925   1.934       .  S
C921        C922   1.411       .  A
C922      Br1979   1.932   1_455  S
Br923      C1978   1.932       .  S
Br924      C1973   1.932       .  S
C927        C928   1.410       .  A
C927        C932   1.412       .  A
C927       Br934   1.932       .  S
C928        C929   1.416       .  A
C929        C930   1.412       .  A
C929       Br936   1.934       .  S
C930        C931   1.411       .  A
C930       Br935   1.932       .  S
C931        C932   1.418       .  A
C932       Br933   1.933       .  S
C937        C938   1.425       .  A
C937        C942   1.409       .  A
C937       Br944   1.934   1_455  S
C938        C939   1.419       .  A
C939        C940   1.407       .  A
C939       Br946   1.933       .  S
C940        C941   1.406       .  A
C940       Br945   1.934       .  S
C941        C942   1.403       .  A
C942       Br943   1.932   1_455  S
C947        C948   1.415       .  A
C947        C952   1.413       .  A
C947       Br954   1.934       .  S
C948        C949   1.415       .  A
C949        C950   1.416       .  A
C949       Br956   1.933       .  S
C950        C951   1.417       .  A
C950       Br955   1.932       .  S
C951        C952   1.414       .  A
C952       Br953   1.932       .  S
C957        C958   1.405       .  A
C957        C962   1.408       .  A
C957      Br2020   1.936       .  S
C958        C959   1.410       .  A
C959        C960   1.413       .  A
C959       Br966   1.930       .  S
C960        C961   1.418       .  A
C960       Br965   1.933       .  S
C961        C962   1.422       .  A
C962      Br2019   1.933       .  S
Br963      C2018   1.933       .  S
Br964      C2013   1.936       .  S
C967        C968   1.407       .  A
C967        C972   1.408       .  A
C967       Br974   1.930       .  S
C968        C969   1.416       .  A
C969        C970   1.411       .  A
C969      Br2032   1.936       .  S
C970        C971   1.415       .  A
C970      Br2031   1.933       .  S
C971        C972   1.419       .  A
C972       Br973   1.936       .  S
Br975      C2026   1.933   1_455  S
Br976      C2025   1.936       .  S
C977       C2034   1.419       .  A
C977       C2038   1.411       .  A
C977       Br984   1.935       .  S
C978       C1086   1.486       .  S
C978        C979   1.410       .  A
C978       C2033   1.419       .  A
C979        C980   1.408   1_655  A
C979       Br986   1.933       .  S
C980        C981   1.414   1_455  A
C980       Br985   1.933       .  S
C981        C982   1.409       .  A
C982       C2033   1.411       .  A
C982      Br2039   1.933       .  S
Br983      C2038   1.933       .  S
C987        C988   1.409       .  A
C987        C992   1.412       .  A
C987       Br994   1.923       .  S
C988        C989   1.406       .  A
C989        C990   1.408       .  A
C989       Br996   1.934       .  S
C990        C991   1.419       .  A
C990       Br995   1.933       .  S
C991        C992   1.415       .  A
C992       Br993   1.933       .  S
C997        C998   1.415       .  A
C997       C1002   1.413       .  A
C997      Br1004   1.932       .  S
C998        C999   1.408       .  A
C999       C1000   1.411       .  A
C999      Br2062   1.933   1_455  S
C1000      C1001   1.419       .  A
C1000     Br1005   1.930   1_455  S
C1001      C1002   1.415       .  A
C1002     Br1003   1.933       .  S
Br1006     C2055   1.933       .  S
C1007      C1012   1.414       .  A
C1007      C2064   1.413       .  A
C1007     Br2070   1.930       .  S
C1008      C1009   1.417       .  A
C1008      C2063   1.413       .  A
C1009      C2066   1.411       .  A
C1009     Br1016   1.929       .  S
C1010      C1011   1.410       .  A
C1010      C2065   1.411       .  A
C1010     Br1015   1.933       .  S
C1011      C1012   1.414       .  A
C1012     Br1013   1.931       .  S
Br1014     C2063   1.931       .  S
C1017      C1018   1.421       .  A
C1017      C1022   1.414       .  A
C1017     Br1024   1.936       .  S
C1018      C1019   1.429       .  A
C1019      C1020   1.412       .  A
C1019     Br1026   1.940       .  S
C1020      C1021   1.408       .  A
C1020     Br1025   1.936       .  S
C1021      C1022   1.414       .  A
C1022     Br1023   1.935       .  S
C1027      C1028   1.415       .  A
C1027      C1032   1.408       .  A
C1027     Br1034   1.932       .  S
C1028      C1029   1.414       .  A
C1029      C1030   1.409       .  A
C1029     Br1036   1.933       .  S
C1030      C1031   1.412       .  A
C1030     Br1035   1.932       .  S
C1031      C1032   1.407       .  A
C1032     Br1033   1.932       .  S
C1037      C1038   1.416       .  A
C1037      C1042   1.407       .  A
C1037     Br1044   1.935       .  S
C1038      C1039   1.410       .  A
C1039      C1040   1.411       .  A
C1039     Br1046   1.930       .  S
C1040      C1041   1.413       .  A
C1040     Br1045   1.931       .  S
C1041      C1042   1.410       .  A
C1042     Br1043   1.934       .  S
C1047      C1048   1.417       .  A
C1047      C1052   1.414       .  A
C1047     Br1054   1.933       .  S
C1048      C1049   1.419       .  A
C1049      C1050   1.410       .  A
C1049     Br1056   1.937       .  S
C1050      C1051   1.413       .  A
C1050     Br1055   1.937       .  S
C1051      C1052   1.417       .  A
C1052     Br1053   1.937   1_455  S
O1057      C1060   1.276       .  A
O1057     Cd1062   2.483       .  S
C1058      O1067   1.268       .  A
C1058      O1063   1.275       .  A
C1058      C2104   1.498       .  S
O1059      C1065   1.276       .  A
O1059     Cd1062   2.469       .  S
C1060      O1068   1.267       .  A
C1060      C2077   1.491       .  S
C1061      O1066   1.275       .  A
C1061      O1064   1.267       .  A
C1061      C2094   1.483       .  S
Cd1062     O1069   2.405       .  S
Cd1062     O1068   2.427       .  S
Cd1062     O1067   2.409       .  S
Cd1062     O1063   2.496       .  S
Cd1062     O1066   2.474       .  S
Cd1062     O1064   2.410       .  S
C1065      O1069   1.269       .  A
C1065      C2084   1.485       .  S
O1070      C1073   1.276       .  A
O1070     Cd1075   2.469       .  S
C1071      O1080   1.268       .  A
C1071      O1076   1.275       .  A
C1071      C2044   1.479       .  S
O1072      C1078   1.279       .  A
O1072     Cd1075   2.481       .  S
C1073      O1081   1.268       .  A
C1073      C2107   1.492       .  S
C1074      O1079   1.276       .  A
C1074      O1077   1.269       .  A
C1074      C2064   1.493       .  S
Cd1075     O1082   2.417       .  S
Cd1075     O1081   2.409       .  S
Cd1075     O1080   2.434       .  S
Cd1075     O1076   2.473       .  S
Cd1075     O1079   2.495       .  S
Cd1075     O1077   2.434       .  S
C1078      O1082   1.268       .  A
C1078      C2054   1.488       .  S
C1084      O1093   1.268       .  A
C1084      O1089   1.275       .  A
C1084      C2017   1.496       .  S
O1085      C1091   1.276       .  A
O1085     Cd1088   2.455       .  S
C1086      O1094   1.268       .  A
C1087      O1092   1.277       .  A
C1087      O1090   1.266       .  A
C1087      C2024   1.482       .  S
Cd1088     O1095   2.416       .  S
Cd1088     O1094   2.407       .  S
Cd1088     O1093   2.410       .  S
Cd1088     O1089   2.478       .  S
Cd1088     O1092   2.475       .  S
Cd1088     O1090   2.394       .  S
C1091      O1095   1.271       .  A
C1091      C2097   1.481       .  S
O1096      C1099   1.271       .  A
O1096     Cd1101   2.479       .  S
C1097      O1106   1.265       .  A
C1097      O1102   1.271       .  A
C1097      C1997   1.471       .  S
O1098      C1104   1.274       .  A
O1098     Cd1101   2.514       .  S
C1099      O1107   1.267       .  A
C1099      C2037   1.483       .  S
C1100      O1105   1.274       .  A
C1100      O1103   1.265       .  A
C1100      C2004   1.497       .  S
Cd1101     O1108   2.433       .  S
Cd1101     O1107   2.426       .  S
Cd1101     O1106   2.407       .  S
Cd1101     O1102   2.473       .  S
Cd1101     O1105   2.516       .  S
Cd1101     O1103   2.439       .  S
C1104      O1108   1.264       .  A
C1104      C2057   1.496       .  S
O1109      C1112   1.278       .  A
O1109     Cd1114   2.507       .  S
C1110      O1119   1.269       .  A
C1110      O1115   1.277       .  A
C1110      C1984   1.489       .  S
C1112      O1120   1.264       .  A
C1112      C1964   1.499       .  S
C1113      O1118   1.275       .  A
C1113      C1977   1.482       .  S
Cd1114     O1121   2.390       .  S
Cd1114     O1120   2.394       .  S
Cd1114     O1119   2.421       .  S
Cd1114     O1115   2.485       .  S
Cd1114     O1116   2.421       .  S
C1117      O1121   1.266       .  A
C1117      C2027   1.490       .  S
O1122      C1125   1.277       .  A
O1122     Cd1127   2.496       .  S
C1123      O1132   1.269       .  A
C1123      O1128   1.276       .  A
C1123      C1944   1.495       .  S
O1124      C1130   1.277       .  A
O1124     Cd1127   2.489       .  S
C1125      O1133   1.266       .  A
C1125      C1987   1.490       .  S
C1126      O1131   1.275       .  A
C1126      O1129   1.269       .  A
C1126      C2007   1.498       .  S
Cd1127     O1134   2.397       .  S
Cd1127     O1133   2.423       .  S
Cd1127     O1132   2.445       .  S
Cd1127     O1128   2.501       .  S
Cd1127     O1131   2.490       .  S
Cd1127     O1129   2.467       .  S
C1130      O1134   1.265       .  A
C1130      C1957   1.491       .  S
O1135      C1138   1.274       .  A
O1135     Cd1140   2.489       .  S
C1136      O1145   1.265   1_556  A
C1136      O1141   1.272       .  A
C1136      C1924   1.479       .  S
O1137      C1143   1.273       .  A
O1137     Cd1140   2.499   1_554  S
C1138      O1146   1.266       .  A
C1138      C1937   1.481   1_556  S
C1139      O1144   1.272       .  A
C1139      O1142   1.267       .  A
C1139      C2067   1.489       .  S
Cd1140     O1147   2.421   1_556  S
Cd1140     O1146   2.405       .  S
Cd1140     O1145   2.426   1_556  S
Cd1140     O1141   2.493       .  S
Cd1140     O1144   2.490       .  S
Cd1140     O1142   2.459       .  S
C1143      O1147   1.264       .  A
C1143      C1954   1.500       .  S
O1148      C1151   1.279       .  A
O1148     Cd1153   2.428       .  S
C1149      O1158   1.271       .  A
C1149      O1154   1.278       .  A
C1149      C1914   1.477       .  S
O1150      C1156   1.278       .  A
O1150     Cd1153   2.443       .  S
C1151      O1159   1.272       .  A
C1151      C1934   1.483       .  S
C1152      O1157   1.280       .  A
C1152      O1155   1.271       .  A
C1152      C2087   1.477       .  S
Cd1153     O1160   2.419       .  S
Cd1153     O1159   2.408       .  S
Cd1153     O1158   2.404       .  S
Cd1153     O1154   2.443       .  S
Cd1153     O1157   2.447   1_554  S
Cd1153     O1155   2.392   1_554  S
C1156      O1160   1.273       .  A
C1156      C1974   1.486       .  S
O1161      C1164   1.272       .  A
O1161     Cd1166   2.475       .  S
C1162      O1171   1.268       .  A
C1162      O1167   1.274       .  A
C1162      C1904   1.483       .  S
O1163      C1169   1.276       .  A
O1163     Cd1166   2.507       .  S
C1164      O1172   1.266       .  A
C1164      C2014   1.479       .  S
C1165      O1170   1.275       .  A
C1165      O1168   1.265   1_455  A
Cd1166     O1173   2.426       .  S
Cd1166     O1172   2.435       .  S
Cd1166     O1171   2.404       .  S
Cd1166     O1167   2.471       .  S
Cd1166     O1170   2.503   1_655  S
Cd1166     O1168   2.418       .  S
C1169      O1173   1.265       .  A
C1169      C1884   1.485       .  S
O1174      C1177   1.278       .  A
O1174     Cd1179   2.442       .  S
C1175      O1184   1.270       .  A
C1175      O1180   1.278       .  A
C1175      C1857   1.494       .  S
O1176      C1182   1.279       .  A
O1176     Cd1179   2.447       .  S
C1177      O1185   1.273       .  A
C1177      C1907   1.487       .  S
C1178      O1183   1.278       .  A
C1178      O1181   1.270       .  A
C1178      C1877   1.490       .  S
Cd1179     O1186   2.417       .  S
Cd1179     O1185   2.423       .  S
Cd1179     O1184   2.403       .  S
Cd1179     O1180   2.460       .  S
Cd1179     O1183   2.468       .  S
Cd1179     O1181   2.402       .  S
C1182      O1186   1.272       .  A
C1182      C1864   1.491       .  S
O1187      C1190   1.276       .  A
C1188      O1193   1.274       .  A
C1188      C1814   1.493       .  S
O1189      C1195   1.276       .  A
O1189     Cd1192   2.487   1_554  S
C1190      C1844   1.474       .  S
C1191      O1196   1.275   1_455  A
C1191      O1194   1.269       .  A
C1191      C1834   1.481   1_455  S
Cd1192     O1198   2.392       .  S
Cd1192     O1197   2.408       .  S
Cd1192     O1196   2.469   1_455  S
Cd1192     O1194   2.413       .  S
C1195      C1824   1.483       .  S
O1200      C1203   1.277       .  A
O1200     Cd1205   2.462       .  S
C1201      O1210   1.266       .  A
C1201      O1206   1.276       .  A
C1201      C1917   1.487       .  S
O1202      C1208   1.275       .  A
O1202     Cd1205   2.464       .  S
C1203      O1211   1.269       .  A
C1203      C1847   1.476       .  S
C1204      O1209   1.277       .  A
C1204      O1207   1.267       .  A
C1204      C1797   1.490       .  S
Cd1205     O1212   2.433       .  S
Cd1205     O1211   2.402       .  S
Cd1205     O1210   2.385       .  S
Cd1205     O1206   2.477       .  S
Cd1205     O1209   2.478   1_554  S
Cd1205     O1207   2.399   1_554  S
C1208      O1212   1.270       .  A
C1208      C1804   1.487       .  S
O1213      C1216   1.276       .  A
C1214      O1219   1.275       .  A
C1214      C1777   1.495       .  S
O1215      C1221   1.276       .  A
O1215     Cd1218   2.451       .  S
C1216      O1224   1.267       .  A
C1216      C1784   1.484       .  S
C1217      O1222   1.275       .  A
C1217      O1220   1.268       .  A
C1217      C1874   1.491       .  S
Cd1218     O1223   2.409       .  S
Cd1218     O1222   2.475       .  S
Cd1218     O1220   2.417       .  S
O1226      C1229   1.274       .  A
O1226     Cd1231   2.501       .  S
C1227      O1236   1.267       .  A
C1227      O1232   1.274       .  A
C1227      C1787   1.487       .  S
O1228      C1234   1.274       .  A
O1228     Cd1231   2.490       .  S
C1229      O1237   1.266       .  A
C1229      C1967   1.483       .  S
C1230      O1235   1.274       .  A
C1230      O1233   1.267       .  A
C1230      C1807   1.486       .  S
Cd1231     O1238   2.410       .  S
Cd1231     O1237   2.413       .  S
Cd1231     O1236   2.421       .  S
Cd1231     O1232   2.483       .  S
Cd1231     O1235   2.485       .  S
Cd1231     O1233   2.424       .  S
C1234      O1238   1.265       .  A
C1234      C1887   1.486       .  S
O1239      C1242   1.276       .  A
O1239     Cd1244   2.500       .  S
C1240      O1249   1.268       .  A
C1240      O1245   1.276       .  A
C1240      C1767   1.493       .  S
O1241      C1247   1.276       .  A
O1241     Cd1244   2.487       .  S
C1242      O1250   1.265       .  A
C1242      C2074   1.509       .  S
C1243      O1248   1.276       .  A
C1243      O1246   1.270       .  A
C1243      C1897   1.488       .  S
Cd1244     O1251   2.421       .  S
Cd1244     O1250   2.392       .  S
Cd1244     O1249   2.421       .  S
Cd1244     O1245   2.485       .  S
Cd1244     O1248   2.472       .  S
Cd1244     O1246   2.420       .  S
C1247      O1251   1.266       .  A
C1247      C1794   1.485       .  S
O1252      C1255   1.274       .  A
O1252     Cd1257   2.482       .  S
C1253      O1262   1.267       .  A
C1253      O1258   1.273       .  A
C1253      C1764   1.489       .  S
O1254      C1260   1.275       .  A
O1254     Cd1257   2.467       .  S
C1255      O1263   1.268       .  A
C1255      C1754   1.485       .  S
C1256      O1261   1.276       .  A
C1256      O1259   1.264       .  A
C1256      C1867   1.479       .  S
Cd1257     O1264   2.399       .  S
Cd1257     O1263   2.411       .  S
Cd1257     O1262   2.433       .  S
Cd1257     O1258   2.465       .  S
Cd1257     O1261   2.506       .  S
Cd1257     O1259   2.379       .  S
C1260      O1264   1.268       .  A
C1260      C1837   1.477       .  S
O1265      C1268   1.276       .  A
O1265     Cd1270   2.494       .  S
C1266      O1275   1.269       .  A
C1266      O1271   1.276       .  A
C1266      C1744   1.481       .  S
O1267      C1273   1.276       .  A
O1267     Cd1270   2.491       .  S
C1268      O1276   1.266       .  A
C1268      C1717   1.483       .  S
C1269      O1274   1.275       .  A
C1269      O1272   1.269       .  A
C1269      C1737   1.488       .  S
Cd1270     O1277   2.402       .  S
Cd1270     O1276   2.395       .  S
Cd1270     O1275   2.420       .  S
Cd1270     O1271   2.463       .  S
Cd1270     O1274   2.480       .  S
Cd1270     O1272   2.445       .  S
C1273      O1277   1.265       .  A
C1273      C1727   1.494       .  S
O1278      C1281   1.275       .  A
O1278     Cd1283   2.505       .  S
C1279      O1288   1.265       .  A
C1279      O1284   1.275       .  A
C1279      C1854   1.495       .  S
O1280      C1286   1.274       .  A
O1280     Cd1283   2.474       .  S
C1281      O1289   1.266       .  A
C1281      C1747   1.485       .  S
C1282      O1287   1.274       .  A
C1282      O1285   1.266       .  A
C1282      C1704   1.486       .  S
Cd1283     O1290   2.426       .  S
Cd1283     O1289   2.427       .  S
Cd1283     O1288   2.412       .  S
Cd1283     O1284   2.498       .  S
Cd1283     O1287   2.488       .  S
Cd1283     O1285   2.417       .  S
C1286      O1290   1.268       .  A
C1286      C1694   1.487       .  S
O1291      C1294   1.279       .  A
C1292      O1301   1.274       .  A
C1292      C1817   1.479       .  S
O1293      C1299   1.280       .  A
O1293     Cd1296   2.412   1_554  S
C1294      C1684   1.481       .  S
C1295      O1300   1.279       .  A
C1295      O1298   1.274       .  A
C1295      C1674   1.481       .  S
Cd1296     O1302   2.418       .  S
Cd1296     O1301   2.406       .  S
Cd1296     O1300   2.430       .  S
Cd1296     O1298   2.403       .  S
C1299      C1664   1.476       .  S
C1305      O1314   1.264       .  A
C1305      C1634   1.484       .  S
O1306      C1312   1.273       .  A
O1306     Cd1309   2.496       .  S
C1307      O1315   1.267       .  A
C1307      C1687   1.475   1_655  S
C1308      O1313   1.275       .  A
C1308      O1311   1.266       .  A
C1308      C1647   1.488       .  S
Cd1309     O1316   2.424       .  S
Cd1309     O1315   2.401       .  S
Cd1309     O1314   2.392       .  S
Cd1309     O1313   2.495   1_554  S
Cd1309     O1311   2.398   1_554  S
C1312      O1316   1.266       .  A
C1312      C1654   1.489       .  S
O1317      C1320   1.275       .  A
O1317     Cd1322   2.469       .  S
C1318      O1323   1.275       .  A
C1318      C1774   1.495       .  S
O1319      C1325   1.276   1_655  A
C1320      O1328   1.269       .  A
C1320      C1624   1.480       .  S
C1321      O1326   1.276       .  A
C1321      O1324   1.266   1_655  A
C1321      C1707   1.486       .  S
Cd1322     O1329   2.397       .  S
Cd1322     O1328   2.417       .  S
Cd1322     O1323   2.487       .  S
O1330      C1333   1.277       .  A
O1330     Cd1335   2.467       .  S
C1331      O1340   1.268       .  A
C1331      O1336   1.277       .  A
C1331      C1627   1.483       .  S
O1332      C1338   1.277       .  A
O1332     Cd1335   2.460       .  S
C1333      O1341   1.269       .  A
C1333      C1614   1.476       .  S
C1334      O1339   1.275       .  A
C1334      O1337   1.270       .  A
C1334      C1657   1.486       .  S
Cd1335     O1342   2.415       .  S
Cd1335     O1341   2.404       .  S
Cd1335     O1340   2.397       .  S
Cd1335     O1336   2.474       .  S
Cd1335     O1339   2.468       .  S
Cd1335     O1337   2.436       .  S
C1338      O1342   1.268       .  A
C1338      C1724   1.488       .  S
O1343      C1346   1.277       .  A
O1343     Cd1348   2.500       .  S
C1344      O1353   1.266       .  A
C1344      O1349   1.276       .  A
C1344      C1597   1.500       .  S
O1345      C1351   1.276       .  A
C1346      O1354   1.267       .  A
C1346      C1607   1.495       .  S
C1347      O1350   1.267       .  A
C1347      C1644   1.484       .  S
Cd1348     O1355   2.432       .  S
Cd1348     O1354   2.411       .  S
Cd1348     O1353   2.428       .  S
Cd1348     O1349   2.507       .  S
Cd1348     O1350   2.412       .  S
C1351      C1734   1.490       .  S
O1356      C1359   1.277       .  A
O1356     Cd1361   2.487       .  S
C1357      O1366   1.267       .  A
C1357      O1362   1.275       .  A
C1357      C1757   1.477       .  S
O1358      C1364   1.276       .  A
O1358     Cd1361   2.487       .  S
C1359      O1367   1.267       .  A
C1359      C1604   1.494       .  S
C1360      O1365   1.275       .  A
C1360      O1363   1.268       .  A
C1360      C1677   1.480       .  S
Cd1361     O1368   2.406       .  S
Cd1361     O1367   2.425       .  S
Cd1361     O1366   2.433       .  S
Cd1361     O1362   2.481       .  S
Cd1361     O1365   2.462       .  S
Cd1361     O1363   2.419       .  S
C1364      O1368   1.267       .  A
C1364      C1697   1.480       .  S
C1370      O1379   1.267       .  A
O1371      C1377   1.276       .  A
O1371     Cd1374   2.520       .  S
C1372      O1380   1.267       .  A
C1372      C1594   1.484       .  S
C1373      O1378   1.275       .  A
C1373      O1376   1.266       .  A
C1373      C1574   1.498       .  S
Cd1374     O1381   2.427       .  S
Cd1374     O1380   2.450       .  S
Cd1374     O1379   2.419       .  S
Cd1374     O1378   2.519       .  S
Cd1374     O1376   2.432       .  S
C1377      O1381   1.265       .  A
C1377      C1564   1.484       .  S
O1382      C1385   1.272       .  A
O1382     Cd1387   2.474       .  S
C1383      O1392   1.265       .  A
C1383      O1388   1.273       .  A
C1383      C2047   1.490       .  S
O1384      C1390   1.273       .  A
O1384     Cd1387   2.485       .  S
C1385      O1393   1.266       .  A
C1385      C1587   1.486       .  S
C1386      O1391   1.273       .  A
C1386      O1389   1.267       .  A
C1386      C1554   1.485       .  S
Cd1387     O1394   2.415       .  S
Cd1387     O1393   2.459       .  S
Cd1387     O1392   2.424       .  S
Cd1387     O1388   2.490       .  S
Cd1387     O1391   2.496       .  S
Cd1387     O1389   2.412       .  S
C1390      O1394   1.264       .  A
C1390      C1544   1.482       .  S
O1395      C1398   1.270       .  A
O1395     Cd1400   2.480       .  S
C1396      O1405   1.265       .  A
C1396      O1401   1.271       .  A
C1396      C1534   1.470       .  S
C1398      O1406   1.265       .  A
C1398      C1637   1.491       .  S
C1399      O1404   1.272       .  A
C1399      C1524   1.492       .  S
Cd1400     O1407   2.430   1_554  S
Cd1400     O1406   2.431       .  S
Cd1400     O1405   2.403       .  S
Cd1400     O1401   2.489       .  S
Cd1400     O1402   2.439       .  S
C1403      O1407   1.265       .  A
C1403      C1567   1.493       .  S
O1408      C1411   1.270       .  A
O1408     Cd1413   2.391       .  S
C1409      O1418   1.278       .  A
C1409      O1414   1.270       .  A
C1409      C1927   1.479       .  S
O1410      C1416   1.269       .  A
O1410     Cd1413   2.395   1_554  S
C1411      O1419   1.278   1_556  A
C1411      C1537   1.477       .  S
C1412      O1417   1.271       .  A
C1412      O1415   1.277       .  A
C1412      C1557   1.492       .  S
Cd1413     O1420   2.505       .  S
Cd1413     O1419   2.475   1_556  S
Cd1413     O1418   2.491       .  S
Cd1413     O1414   2.385       .  S
Cd1413     O1417   2.403       .  S
Cd1413     O1415   2.494       .  S
C1416      O1420   1.278   1_554  A
C1416      C1514   1.480       .  S
O1421      C1424   1.275       .  A
O1421     Cd1426   2.465       .  S
C1422      O1431   1.267       .  A
C1422      O1427   1.275       .  A
C1422      C1507   1.484       .  S
O1423      C1429   1.277       .  A
O1423     Cd1426   2.509       .  S
C1424      O1432   1.268       .  A
C1424      C1714   1.473       .  S
C1425      O1430   1.276       .  A
C1425      O1428   1.269       .  A
C1425      C1577   1.492       .  S
Cd1426     O1433   2.440       .  S
Cd1426     O1432   2.422       .  S
Cd1426     O1431   2.395       .  S
Cd1426     O1427   2.482       .  S
Cd1426     O1430   2.487       .  S
Cd1426     O1428   2.439       .  S
C1429      O1433   1.266       .  A
C1429      C1497   1.496       .  S
O1434      C1437   1.279       .  A
O1434     Cd1439   2.406       .  S
C1435      O1444   1.273       .  A
C1435      O1440   1.278       .  A
C1435      C1994   1.494       .  S
O1436      C1442   1.281       .  A
O1436     Cd1439   2.434       .  S
C1437      O1445   1.276       .  A
C1437      C1504   1.485       .  S
C1438      O1443   1.279       .  A
C1438      O1441   1.276       .  A
C1438      C1484   1.478       .  S
Cd1439     O1446   2.398       .  S
Cd1439     O1445   2.398       .  S
Cd1439     O1444   2.398       .  S
Cd1439     O1440   2.427       .  S
Cd1439     O1443   2.436       .  S
Cd1439     O1441   2.392       .  S
C1442      O1446   1.274       .  A
C1442      C1547   1.476       .  S
O1447      C1450   1.271       .  A
O1447     Cd1452   2.489       .  S
C1448      O1457   1.265       .  A
C1448      O1453   1.271       .  A
C1448      C1947   1.490       .  S
O1449      C1455   1.271       .  A
O1449     Cd1452   2.522       .  S
C1450      O1458   1.265       .  A
C1450      C1474   1.491       .  S
C1451      O1456   1.271       .  A
C1451      O1454   1.265       .  A
C1451      C1487   1.483       .  S
Cd1452     O1459   2.438       .  S
Cd1452     O1458   2.472       .  S
Cd1452     O1457   2.471       .  S
Cd1452     O1453   2.513       .  S
Cd1452     O1456   2.492       .  S
Cd1452     O1454   2.439       .  S
C1455      O1459   1.264       .  A
C1455      C1517   1.487       .  S
O1460      C1463   1.273       .  A
O1460     Cd1465   2.492       .  S
C1461      O1470   1.264       .  A
C1461      O1466   1.273       .  A
C1461      C1617   1.485       .  S
O1462      C1468   1.272       .  A
O1462     Cd1465   2.491       .  S
C1463      O1471   1.268       .  A
C1463      C1477   1.490       .  S
C1464      O1469   1.273       .  A
C1464      O1467   1.265       .  A
C1464      C1494   1.505       .  S
Cd1465     O1472   2.461       .  S
Cd1465     O1471   2.441       .  S
Cd1465     O1470   2.425       .  S
Cd1465     O1466   2.522       .  S
Cd1465     O1469   2.511       .  S
Cd1465     O1467   2.455       .  S
C1468      O1472   1.266       .  A
C1468      C1527   1.486       .  S
C1473      C1474   1.416       .  A
C1473      C1478   1.414       .  A
C1473     Br1480   1.931       .  S
C1474      C1475   1.412       .  A
C1475      C1476   1.410       .  A
C1475     Br1482   1.933       .  S
C1476      C1477   1.413       .  A
C1476     Br1481   1.929       .  S
C1477      C1478   1.413       .  A
C1478     Br1479   1.933       .  S
C1483      C1484   1.410       .  A
C1483      C1488   1.407       .  A
C1483     Br1490   1.932       .  S
C1485      C1486   1.411       .  A
C1485     Br1492   1.931       .  S
C1486      C1487   1.413       .  A
C1486     Br1491   1.929       .  S
C1488     Br1489   1.931       .  S
C1493      C1494   1.424       .  A
C1493      C1498   1.415       .  A
C1493     Br1500   1.935       .  S
C1494      C1495   1.417       .  A
C1495      C1496   1.414       .  A
C1495     Br1502   1.934       .  S
C1496      C1497   1.417       .  A
C1496     Br1501   1.935       .  S
C1497      C1498   1.409       .  A
C1498     Br1499   1.933       .  S
C1503      C1504   1.418       .  A
C1503      C1508   1.412       .  A
C1503     Br1510   1.936       .  S
C1504      C1505   1.411       .  A
C1505      C1506   1.406       .  A
C1505     Br1512   1.936       .  S
C1506      C1507   1.416       .  A
C1506     Br1511   1.937       .  S
C1507      C1508   1.411       .  A
C1508     Br1509   1.932       .  S
C1513      C1514   1.406       .  A
C1513      C1518   1.409       .  A
C1513     Br1520   1.928       .  S
C1514      C1515   1.409       .  A
C1515      C1516   1.414       .  A
C1515     Br1522   1.928       .  S
C1516      C1517   1.414       .  A
C1516     Br1521   1.929       .  S
C1517      C1518   1.412       .  A
C1518     Br1519   1.928       .  S
C1523      C1524   1.413       .  A
C1523      C1528   1.414       .  A
C1523     Br1530   1.931       .  S
C1524      C1525   1.418       .  A
C1525      C1526   1.410       .  A
C1526      C1527   1.409       .  A
C1527      C1528   1.412       .  A
C1528     Br1529   1.927       .  S
C1533      C1534   1.406       .  A
C1533      C1538   1.411       .  A
C1533     Br1540   1.927       .  S
C1534      C1535   1.405   1_554  A
C1535      C1536   1.404       .  A
C1535     Br1542   1.932       .  S
C1536      C1537   1.412       .  A
C1536     Br1541   1.927       .  S
C1537      C1538   1.413   1_556  A
C1538     Br1539   1.930       .  S
C1543      C1544   1.412       .  A
C1543      C1548   1.409       .  A
C1543     Br1550   1.931       .  S
C1544      C1545   1.415       .  A
C1545      C1546   1.408       .  A
C1545     Br1552   1.931       .  S
C1546      C1547   1.406       .  A
C1547      C1548   1.411       .  A
C1548     Br1549   1.931       .  S
C1553      C1554   1.410       .  A
C1553      C1558   1.405       .  A
C1553     Br1560   1.934       .  S
C1554      C1555   1.413       .  A
C1555      C1556   1.416       .  A
C1555     Br1562   1.931       .  S
C1556      C1557   1.416       .  A
C1556     Br1561   1.930       .  S
C1557      C1558   1.414       .  A
C1558     Br1559   1.932       .  S
C1563      C1564   1.411       .  A
C1563      C1568   1.417       .  A
C1563     Br1570   1.930       .  S
C1564      C1565   1.407       .  A
C1565      C1566   1.409       .  A
C1565     Br1572   1.931       .  S
C1566      C1567   1.415       .  A
C1566     Br1571   1.932       .  S
C1567      C1568   1.416       .  A
C1568     Br1569   1.930       .  S
C1573      C1574   1.414       .  A
C1573      C1578   1.415       .  A
C1573     Br1580   1.930       .  S
C1574      C1575   1.420       .  A
C1575      C1576   1.412       .  A
C1575     Br1582   1.935       .  S
C1576      C1577   1.410       .  A
C1576     Br1581   1.934       .  S
C1577      C1578   1.414       .  A
C1578     Br1579   1.932       .  S
C1583      C1584   1.413       .  A
C1583      C1588   1.412       .  A
C1583     Br1590   1.934       .  S
C1585     Br1592   1.934       .  S
C1586      C1587   1.411       .  A
C1587      C1588   1.415       .  A
C1588     Br1589   1.930       .  S
C1593      C1594   1.411       .  A
C1593      C1598   1.415       .  A
C1593     Br1600   1.932       .  S
C1594      C1595   1.406       .  A
C1595      C1596   1.410       .  A
C1596      C1597   1.423       .  A
C1597      C1598   1.418       .  A
C1598     Br1599   1.932       .  S
C1603      C1604   1.413       .  A
C1603      C1608   1.411       .  A
C1603     Br1610   1.934       .  S
C1604      C1605   1.419       .  A
C1605      C1606   1.414   1_545  A
C1605     Br1612   1.935       .  S
C1606      C1607   1.414       .  A
C1606     Br1611   1.933       .  S
C1607      C1608   1.416   1_565  A
C1608     Br1609   1.934       .  S
C1613      C1614   1.408       .  A
C1613      C1618   1.413       .  A
C1613     Br1620   1.930       .  S
C1614      C1615   1.408       .  A
C1615      C1616   1.406       .  A
C1615     Br1622   1.933       .  S
C1616      C1617   1.414       .  A
C1616     Br1621   1.931       .  S
C1617      C1618   1.413       .  A
C1618     Br1619   1.926       .  S
C1623      C1624   1.408       .  A
C1623      C1628   1.409   1_545  A
C1623     Br1630   1.932       .  S
C1624      C1625   1.413       .  A
C1625      C1626   1.409   1_545  A
C1626      C1627   1.410       .  A
C1626     Br1631   1.932       .  S
C1627      C1628   1.418       .  A
C1628     Br1629   1.934       .  S
C1633      C1634   1.413       .  A
C1633      C1638   1.407       .  A
C1633     Br1640   1.936       .  S
C1635     Br1642   1.932       .  S
C1636      C1637   1.420       .  A
C1637      C1638   1.414       .  A
C1638     Br1639   1.933       .  S
C1643      C1644   1.413       .  A
C1643      C1648   1.411       .  A
C1643     Br1650   1.932       .  S
C1645     Br1652   1.925       .  S
C1646      C1647   1.416       .  A
C1647      C1648   1.414       .  A
C1648     Br1649   1.932       .  S
C1653      C1654   1.412       .  A
C1653      C1658   1.413       .  A
C1653     Br1660   1.930       .  S
C1654      C1655   1.417       .  A
C1655      C1656   1.409       .  A
C1655     Br1662   1.936       .  S
C1656      C1657   1.410       .  A
C1656     Br1661   1.933       .  S
C1657      C1658   1.414       .  A
C1658     Br1659   1.932       .  S
C1663      C1668   1.411       .  A
C1663     Br1670   1.933   1_455  S
C1664      C1665   1.406       .  A
C1665      C1666   1.406       .  A
C1665     Br1672   1.933       .  S
C1666      C1667   1.415       .  A
C1666     Br1671   1.933       .  S
C1668     Br1669   1.930   1_455  S
C1673      C1674   1.411       .  A
C1673      C1678   1.409       .  A
C1673     Br1680   1.932       .  S
C1674      C1675   1.414       .  A
C1675      C1676   1.408       .  A
C1675     Br1682   1.933       .  S
C1676      C1677   1.410       .  A
C1676     Br1681   1.933       .  S
C1677      C1678   1.413       .  A
C1678     Br1679   1.932       .  S
C1683      C1688   1.412   1_545  A
C1683     Br1690   1.932       .  S
C1684      C1685   1.409       .  A
C1685      C1686   1.404   1_545  A
C1685     Br1692   1.932       .  S
C1686      C1687   1.410   1_556  A
C1686     Br1691   1.930   1_455  S
C1688     Br1689   1.930       .  S
C1693      C1694   1.417       .  A
C1693      C1698   1.412       .  A
C1693     Br1700   1.932       .  S
C1694      C1695   1.413       .  A
C1695      C1696   1.408       .  A
C1695     Br1702   1.932       .  S
C1696      C1697   1.411       .  A
C1696     Br1701   1.932       .  S
C1697      C1698   1.408       .  A
C1698     Br1699   1.930       .  S
C1703      C1704   1.412       .  A
C1703      C1708   1.410       .  A
C1703     Br1710   1.932       .  S
C1704      C1705   1.414       .  A
C1705      C1706   1.410       .  A
C1705     Br1712   1.932       .  S
C1706      C1707   1.410       .  A
C1706     Br1711   1.931       .  S
C1707      C1708   1.417       .  A
C1713      C1714   1.405       .  A
C1713      C1718   1.405       .  A
C1713     Br1720   1.933       .  S
C1714      C1715   1.410       .  A
C1715      C1716   1.413       .  A
C1715     Br1722   1.929       .  S
C1716      C1717   1.413       .  A
C1716     Br1721   1.929       .  S
C1717      C1718   1.416       .  A
C1718     Br1719   1.934       .  S
C1723      C1724   1.417       .  A
C1723      C1728   1.412       .  A
C1723     Br1730   1.935       .  S
C1724      C1725   1.409       .  A
C1725      C1726   1.409       .  A
C1725     Br1732   1.935       .  S
C1726      C1727   1.420       .  A
C1726     Br1731   1.936       .  S
C1727      C1728   1.415       .  A
C1728     Br1729   1.933       .  S
C1733      C1734   1.412       .  A
C1733      C1738   1.413       .  A
C1733     Br1740   1.929       .  S
C1734      C1735   1.416       .  A
C1735      C1736   1.411       .  A
C1736      C1737   1.411       .  A
C1736     Br1741   1.932       .  S
C1737      C1738   1.414       .  A
C1738     Br1739   1.930       .  S
C1743      C1744   1.415       .  A
C1743      C1748   1.412   1_565  A
C1743     Br1750   1.934       .  S
C1744      C1745   1.407       .  A
C1745      C1746   1.408   1_565  A
C1745     Br1752   1.931       .  S
C1746      C1747   1.414       .  A
C1746     Br1751   1.929       .  S
C1747      C1748   1.410       .  A
C1748     Br1749   1.929       .  S
C1753      C1754   1.415       .  A
C1753      C1758   1.405       .  A
C1753     Br1760   1.932       .  S
C1754      C1755   1.414       .  A
C1755      C1756   1.414       .  A
C1755     Br1762   1.931       .  S
C1756      C1757   1.411       .  A
C1756     Br1761   1.928       .  S
C1757      C1758   1.406       .  A
C1758     Br1759   1.933       .  S
C1763      C1764   1.418       .  A
C1763      C1768   1.412       .  A
C1763     Br1770   1.936       .  S
C1764      C1765   1.411       .  A
C1765      C1766   1.410       .  A
C1765     Br1772   1.936       .  S
C1766      C1767   1.419       .  A
C1766     Br1771   1.935       .  S
C1767      C1768   1.413       .  A
C1768     Br1769   1.933       .  S
C1773      C1774   1.414       .  A
C1773      C1778   1.409       .  A
C1773     Br1780   1.933       .  S
C1775      C1776   1.412       .  A
C1775     Br1782   1.937   1_455  S
C1776      C1777   1.414       .  A
C1776     Br1781   1.934   1_455  S
C1778     Br1779   1.934       .  S
C1783      C1784   1.408   1_655  A
C1783      C1788   1.407       .  A
C1783     Br1790   1.936       .  S
C1784      C1785   1.418       .  A
C1785      C1786   1.411       .  A
C1785     Br1792   1.934       .  S
C1786      C1787   1.410   1_455  A
C1786     Br1791   1.933       .  S
C1787      C1788   1.416       .  A
C1788     Br1789   1.927       .  S
C1793      C1794   1.409       .  A
C1793      C1798   1.410       .  A
C1793     Br1800   1.932       .  S
C1794      C1795   1.415       .  A
C1795      C1796   1.411       .  A
C1795     Br1802   1.932       .  S
C1796      C1797   1.413       .  A
C1796     Br1801   1.933       .  S
C1797      C1798   1.417       .  A
C1798     Br1799   1.935       .  S
C1803      C1804   1.416       .  A
C1803      C1808   1.411       .  A
C1803     Br1810   1.934       .  S
C1804      C1805   1.411       .  A
C1805      C1806   1.410       .  A
C1805     Br1812   1.932       .  S
C1806      C1807   1.414       .  A
C1806     Br1811   1.933       .  S
C1807      C1808   1.412       .  A
C1808     Br1809   1.932       .  S
C1813      C1814   1.417       .  A
C1813      C1818   1.413       .  A
C1813     Br1820   1.931       .  S
C1815      C1816   1.407       .  A
C1815     Br1822   1.936   1_556  S
C1816     Br1821   1.935   1_556  S
C1817      C1818   1.411       .  A
C1818     Br1819   1.932       .  S
C1823      C1828   1.406       .  A
C1823     Br1830   1.935       .  S
C1824      C1825   1.412       .  A
C1825      C1826   1.410       .  A
C1825     Br1832   1.933   1_455  S
C1826      C1827   1.415       .  A
C1826     Br1831   1.932   1_455  S
C1828     Br1829   1.933       .  S
C1833      C1834   1.411       .  A
C1833      C1838   1.409       .  A
C1833     Br1840   1.930       .  S
C1834      C1835   1.414   1_655  A
C1835      C1836   1.408   1_455  A
C1836      C1837   1.409       .  A
C1836     Br1841   1.932   1_655  S
C1837      C1838   1.412       .  A
C1838     Br1839   1.933       .  S
C1843      C1844   1.412   1_554  A
C1843      C1848   1.406       .  A
C1843     Br1850   1.931       .  S
C1844      C1845   1.407       .  A
C1845      C1846   1.409       .  A
C1845     Br1852   1.930       .  S
C1846      C1847   1.414   1_556  A
C1846     Br1851   1.931       .  S
C1847      C1848   1.408       .  A
C1848     Br1849   1.930       .  S
C1853      C1854   1.413       .  A
C1853      C1858   1.412       .  A
C1853     Br1860   1.933       .  S
C1854      C1855   1.419       .  A
C1855      C1856   1.410       .  A
C1855     Br1862   1.932       .  S
C1856      C1857   1.412       .  A
C1856     Br1861   1.936       .  S
C1857      C1858   1.418       .  A
C1858     Br1859   1.935       .  S
C1863      C1864   1.419       .  A
C1863      C1868   1.413       .  A
C1863     Br1870   1.931       .  S
C1864      C1865   1.414       .  A
C1865      C1866   1.406       .  A
C1865     Br1872   1.934       .  S
C1866      C1867   1.411       .  A
C1866     Br1871   1.935       .  S
C1867      C1868   1.407       .  A
C1868     Br1869   1.930       .  S
C1873      C1874   1.417       .  A
C1873      C1878   1.412       .  A
C1873     Br1880   1.934       .  S
C1874      C1875   1.413       .  A
C1875      C1876   1.410       .  A
C1875     Br1882   1.934       .  S
C1876      C1877   1.417       .  A
C1876     Br1881   1.937       .  S
C1877      C1878   1.411       .  A
C1878     Br1879   1.932       .  S
C1883      C1884   1.408       .  A
C1883      C1888   1.410       .  A
C1884      C1885   1.414       .  A
C1885      C1886   1.410       .  A
C1885     Br1892   1.929       .  S
C1886      C1887   1.411       .  A
C1886     Br1891   1.932       .  S
C1887      C1888   1.415       .  A
C1888     Br1889   1.930       .  S
C1893     Br1900   1.936   1_455  S
C1894      C1895   1.413       .  A
C1895      C1896   1.413       .  A
C1895     Br1902   1.930       .  S
C1896      C1897   1.415       .  A
C1896     Br1901   1.933       .  S
C1897      C1898   1.411       .  A
C1903      C1904   1.413       .  A
C1903      C1908   1.412       .  A
C1903     Br1910   1.934       .  S
C1904      C1905   1.412       .  A
C1905      C1906   1.407       .  A
C1905     Br1912   1.935       .  S
C1906      C1907   1.413       .  A
C1906     Br1911   1.933       .  S
C1907      C1908   1.416       .  A
C1908     Br1909   1.932       .  S
C1913      C1914   1.411       .  A
C1913      C1918   1.411       .  A
C1913     Br1920   1.931       .  S
C1914      C1915   1.407       .  A
C1915      C1916   1.407       .  A
C1915     Br1922   1.935   1_554  S
C1916      C1917   1.420       .  A
C1916     Br1921   1.938   1_554  S
C1917      C1918   1.414       .  A
C1918     Br1919   1.931       .  S
C1923      C1924   1.409       .  A
C1923      C1928   1.409       .  A
C1923     Br1930   1.929       .  S
C1924      C1925   1.413   1_556  A
C1925      C1926   1.409       .  A
C1925     Br1932   1.929       .  S
C1926      C1927   1.408   1_554  A
C1926     Br1931   1.929       .  S
C1927      C1928   1.411       .  A
C1928     Br1929   1.930       .  S
C1933      C1934   1.418   1_556  A
C1933      C1938   1.411       .  A
C1933     Br1940   1.934       .  S
C1934      C1935   1.410       .  A
C1935      C1936   1.406       .  A
C1935     Br1942   1.934       .  S
C1936      C1937   1.414       .  A
C1936     Br1941   1.935       .  S
C1937      C1938   1.409   1_554  A
C1938     Br1939   1.931       .  S
C1943      C1944   1.412       .  A
C1943      C1948   1.415       .  A
C1943     Br1950   1.929       .  S
C1944      C1945   1.418       .  A
C1945      C1946   1.413       .  A
C1945     Br1952   1.933       .  S
C1946      C1947   1.410       .  A
C1946     Br1951   1.932       .  S
C1947      C1948   1.414       .  A
C1948     Br1949   1.929       .  S
C1953      C1954   1.417       .  A
C1953      C1958   1.412       .  A
C1953     Br1960   1.935       .  S
C1954      C1955   1.423       .  A
C1955      C1956   1.412       .  A
C1955     Br1962   1.936       .  S
C1956      C1957   1.410       .  A
C1956     Br1961   1.935       .  S
C1957      C1958   1.418       .  A
C1958     Br1959   1.938       .  S
C1963      C1964   1.426       .  A
C1963      C1968   1.410       .  A
C1963     Br1970   1.937   1_655  S
C1964      C1965   1.417       .  A
C1965      C1966   1.412       .  A
C1966      C1967   1.410       .  A
C1967      C1968   1.405       .  A
C1968     Br1969   1.932   1_655  S
C1973      C1974   1.412       .  A
C1973      C1978   1.409       .  A
C1974      C1975   1.416       .  A
C1975      C1976   1.410       .  A
C1975     Br1982   1.934       .  S
C1976      C1977   1.412       .  A
C1976     Br1981   1.934       .  S
C1977      C1978   1.411       .  A
C1983      C1984   1.410       .  A
C1983      C1988   1.412       .  A
C1983     Br1990   1.932       .  S
C1984      C1985   1.416       .  A
C1985      C1986   1.412       .  A
C1985     Br1992   1.934       .  S
C1986      C1987   1.411       .  A
C1986     Br1991   1.932       .  S
C1987      C1988   1.418       .  A
C1988     Br1989   1.933       .  S
C1993      C1994   1.425       .  A
C1993      C1998   1.409       .  A
C1993     Br2000   1.934       .  S
C1994      C1995   1.419       .  A
C1995      C1996   1.407       .  A
C1995     Br2002   1.933       .  S
C1996      C1997   1.406       .  A
C1996     Br2001   1.934       .  S
C1997      C1998   1.403       .  A
C1998     Br1999   1.932       .  S
C2003      C2004   1.415       .  A
C2003      C2008   1.413       .  A
C2003     Br2010   1.934       .  S
C2004      C2005   1.415       .  A
C2005      C2006   1.416       .  A
C2005     Br2012   1.933       .  S
C2006      C2007   1.417       .  A
C2006     Br2011   1.932       .  S
C2007      C2008   1.414       .  A
C2008     Br2009   1.932       .  S
C2013      C2014   1.405       .  A
C2013      C2018   1.408       .  A
C2014      C2015   1.410       .  A
C2015      C2016   1.413       .  A
C2015     Br2022   1.930       .  S
C2016      C2017   1.418       .  A
C2016     Br2021   1.933       .  S
C2017      C2018   1.422       .  A
C2023      C2024   1.407       .  A
C2023      C2028   1.408       .  A
C2023     Br2030   1.930       .  S
C2024      C2025   1.416       .  A
C2025      C2026   1.411       .  A
C2026      C2027   1.415       .  A
C2027      C2028   1.419       .  A
C2028     Br2029   1.936       .  S
C2033     Br2040   1.935       .  S
C2034      C2035   1.410       .  A
C2035      C2036   1.408       .  A
C2035     Br2042   1.933       .  S
C2036      C2037   1.414       .  A
C2036     Br2041   1.933       .  S
C2037      C2038   1.409       .  A
C2043      C2044   1.409       .  A
C2043      C2048   1.412       .  A
C2043     Br2050   1.923       .  S
C2044      C2045   1.406       .  A
C2045      C2046   1.408       .  A
C2045     Br2052   1.933       .  S
C2046      C2047   1.419       .  A
C2046     Br2051   1.933       .  S
C2047      C2048   1.415       .  A
C2048     Br2049   1.933       .  S
C2053      C2054   1.415       .  A
C2053      C2058   1.413       .  A
C2053     Br2060   1.932       .  S
C2054      C2055   1.408       .  A
C2055      C2056   1.411       .  A
C2056      C2057   1.419       .  A
C2056     Br2061   1.930       .  S
C2057      C2058   1.415       .  A
C2058     Br2059   1.933       .  S
C2063      C2068   1.414       .  A
C2064      C2065   1.417       .  A
C2065     Br2072   1.929       .  S
C2066      C2067   1.410       .  A
C2066     Br2071   1.933       .  S
C2067      C2068   1.414       .  A
C2068     Br2069   1.931       .  S
C2073      C2074   1.421       .  A
C2073      C2078   1.414       .  A
C2073     Br2080   1.936       .  S
C2074      C2075   1.429       .  A
C2075      C2076   1.412       .  A
C2075     Br2082   1.940       .  S
C2076      C2077   1.408       .  A
C2076     Br2081   1.936       .  S
C2077      C2078   1.414       .  A
C2078     Br2079   1.935       .  S
C2083      C2084   1.415       .  A
C2083      C2088   1.408       .  A
C2083     Br2090   1.932       .  S
C2084      C2085   1.414       .  A
C2085      C2086   1.409       .  A
C2085     Br2092   1.932       .  S
C2086      C2087   1.412       .  A
C2086     Br2091   1.932       .  S
C2087      C2088   1.407       .  A
C2088     Br2089   1.932       .  S
C2093      C2094   1.416       .  A
C2093      C2098   1.407       .  A
C2093     Br2100   1.935       .  S
C2094      C2095   1.410       .  A
C2095      C2096   1.411       .  A
C2095     Br2102   1.930       .  S
C2096      C2097   1.413       .  A
C2096     Br2101   1.931       .  S
C2097      C2098   1.410       .  A
C2098     Br2099   1.934       .  S
C2103      C2104   1.417       .  A
C2103      C2108   1.414       .  A
C2103     Br2110   1.933       .  S
C2104      C2105   1.418       .  A
C2105      C2106   1.410       .  A
C2105     Br2112   1.937       .  S
C2106      C2107   1.413       .  A
C2106     Br2111   1.937       .  S
C2107      C2108   1.417       .  A
C2108     Br2109   1.937       .  S
