geometry optimzed in LAMMPS
_audit_creation_date              2020-12-01 
_audit_creation_method            'lammps2cif' 
_symmetry_space_group_name_H-M    'P1' 
_symmetry_Int_Tables_number       1 
_symmetry_cell_setting            triclinic 
loop_ 
_symmetry_equiv_pos_as_xyz 
  x,y,z 
_cell_length_a                    38.3159158 
_cell_length_b                    38.29694764472098 
_cell_length_c                    26.529425134942684 
_cell_angle_alpha                 90.31341212226643 
_cell_angle_beta                  89.99171558070776 
_cell_angle_gamma                 120.7469713468868 
loop_ 
_atom_site_label 
_atom_site_type_symbol 
_atom_site_fract_x 
_atom_site_fract_y 
_atom_site_fract_z 
_atom_site_charge 
O1          O  0.80413977  0.43834462  0.93136908    -0.56800
C2          C  0.92085814  0.45335907  0.90911245     0.75800
O3          O  0.85917856  0.39697380  0.04384396    -0.57900
C4          C  0.77982414  0.42200537  0.96800851     0.75800
C5          C  0.80323433  0.33353074  0.89618457     0.78200
Cd6        Cd  0.84421529  0.40698772  0.95532609     1.37500
O7          O  0.89414326  0.46348031  0.90622110    -0.56800
O8          O  0.81766211  0.36857450  0.87759165    -0.55600
C9          C  0.86855622  0.43274272  0.05750869     0.78200
O10         O  0.80914032  0.33181185  0.94307324    -0.58000
O11         O  0.91106505  0.42044233  0.93158676    -0.56400
O12         O  0.78430105  0.39758266  0.99519273    -0.56400
O13         O  0.87012793  0.45624872  0.02314722    -0.55600
O14         O  0.63005038  0.44074675  0.05414218    -0.56800
C15         C  0.52927282  0.45775455  0.07872967     0.75800
O16         O  0.53058806  0.39664562  0.94530294    -0.57900
C17         C  0.63611734  0.42311441  0.01734425     0.75800
C18         C  0.52308919  0.33523948  0.09096431     0.78200
Cd19       Cd  0.55689950  0.40908262  0.03352228     1.37500
O20         O  0.56582504  0.46651797  0.08386388    -0.56800
O21         O  0.54486666  0.37014611  0.11035393    -0.55600
C22         C  0.55618541  0.43265831  0.93118198     0.78200
O23         O  0.51435752  0.33393250  0.04449841    -0.58000
O24         O  0.50522562  0.42474416  0.05603289    -0.56400
O25         O  0.60554764  0.39821950  0.99173644    -0.56400
O26         O  0.57823554  0.45728275  0.96530384    -0.55600
O27         O  0.56208155  0.45692573  0.56458735    -0.56800
C28         C  0.61584390  0.39528307  0.63498819     0.75800
O29         O  0.69358259  0.51578263  0.60228243    -0.57900
C30         C  0.56952026  0.49323718  0.56718003     0.75800
C31         C  0.59437656  0.46896025  0.72026188     0.78200
Cd32       Cd  0.61955477  0.46980968  0.61790950     1.37500
O33         O  0.58858098  0.39583045  0.60822544    -0.56800
O34         O  0.57193605  0.44397600  0.68671574    -0.55600
C35         C  0.69138640  0.50357883  0.55701075     0.78200
O36         O  0.62890279  0.49774962  0.70571603    -0.58000
O37         O  0.64467415  0.42910467  0.65052901    -0.56400
O38         O  0.60135923  0.51867005  0.59090643    -0.56400
O39         O  0.65631649  0.47836603  0.54028011    -0.55600
O40         O  0.58175314  0.21703255  0.70988274    -0.56800
C41         C  0.56473988  0.09805808  0.73935572     0.75800
O42         O  0.62924406  0.16419789  0.60987171    -0.57900
C43         C  0.61125792  0.24830668  0.68984071     0.75800
C44         C  0.68383777  0.21318347  0.76567636     0.78200
Cd45       Cd  0.61515851  0.17684768  0.69860601     1.37500
O46         O  0.55502702  0.12509469  0.74363362    -0.56800
O47         O  0.64771811  0.19988284  0.78029153    -0.55600
C48         C  0.59481757  0.15710480  0.59382753     0.78200
O49         O  0.68846557  0.20705194  0.71955036    -0.58000
O50         O  0.59867790  0.10873384  0.71896059    -0.56400
O51         O  0.64188009  0.24615978  0.67692551    -0.56400
O52         O  0.57108242  0.15756193  0.62649433    -0.55600
O53         O  0.63098707  0.22135548  0.26424474    -0.56800
C54         C  0.53168658  0.10226368  0.23540031     0.75800
O55         O  0.53058639  0.16311118  0.36816371    -0.57900
C56         C  0.63614347  0.24587558  0.29990352     0.75800
C57         C  0.52455176  0.21679867  0.21780065     0.78200
Cd58       Cd  0.55759113  0.17898266  0.28028587     1.37500
O59         O  0.56794051  0.13149602  0.23038496    -0.56800
O60         O  0.54816074  0.20532873  0.20156157    -0.55600
C61         C  0.55762726  0.15520040  0.38242088     0.78200
O62         O  0.51400109  0.20914510  0.26377969    -0.58000
O63         O  0.50717197  0.10969688  0.25850758    -0.56400
O64         O  0.60483273  0.24071415  0.32256696    -0.56400
O65         O  0.58061158  0.15479077  0.34855148    -0.55600
O66         O  0.80618377  0.39569796  0.39582787    -0.56800
C67         C  0.92731820  0.49282587  0.41533294     0.75800
O68         O  0.86234325  0.49618741  0.28539613    -0.57900
C69         C  0.78267868  0.38875354  0.35854768     0.75800
C70         C  0.81199309  0.50278959  0.43317569     0.78200
Cd71       Cd  0.84994608  0.46843444  0.37307864     1.37500
O72         O  0.89828993  0.45626777  0.41755924    -0.56800
O73         O  0.82468934  0.48080041  0.45125373    -0.55600
C74         C  0.87230229  0.47109529  0.26912429     0.78200
O75         O  0.81897704  0.51150123  0.38671275    -0.58000
O76         O  0.91932330  0.51855011  0.39719976    -0.56400
O77         O  0.78957380  0.41855537  0.33140315    -0.56400
O78         O  0.87514703  0.44875835  0.30175145    -0.55600
O79         O  0.19833303  0.56359726  0.92104423    -0.56800
C80         C  0.08951967  0.56021684  0.89189900     0.75800
O81         O  0.15968377  0.62563776  0.01919143    -0.57900
C82         C  0.23405199  0.59314352  0.92856013     0.75800
C83         C  0.20919728  0.68202307  0.87314342     0.78200
Cd84       Cd  0.16920567  0.60801223  0.93095634     1.37500
O85         O  0.11645053  0.55157330  0.88078595    -0.56800
O86         O  0.19011899  0.64728239  0.85231955    -0.55600
C87         C  0.15550913  0.59322199  0.03796144     0.78200
O88         O  0.20679429  0.68285152  0.92088972    -0.58000
O89         O  0.10080686  0.59236185  0.91734697    -0.56400
O90         O  0.23875277  0.62810941  0.93318069    -0.56400
O91         O  0.15685977  0.56869007  0.00721834    -0.55600
O92         O  0.44575545  0.56702583  0.07106552    -0.56800
C93         C  0.38173834  0.60740071  0.99158087     0.75800
O94         O  0.50144580  0.69865412  0.03351028    -0.57900
C95         C  0.48172277  0.57366819  0.06983145     0.75800
C96         C  0.46526464  0.60270321  0.91392332     0.78200
Cd97       Cd  0.45992454  0.62366527  0.01714610     1.37500
O98         O  0.38545753  0.58518389  0.02392391    -0.56800
O99         O  0.44119127  0.57756642  0.94586578    -0.55600
C100        C  0.48745414  0.69612879  0.07766725     0.78200
O101        O  0.49136995  0.63773002  0.93098895    -0.58000
O102        O  0.41399885  0.63817159  0.97620686    -0.56400
O103        O  0.50816468  0.60542080  0.04723898    -0.56400
O104        O  0.46306621  0.66074534  0.09361548    -0.55600
O105        O  0.44577203  0.90698894  0.21798258    -0.56800
C106        C  0.38007157  0.78684276  0.28652904     0.75800
O107        O  0.49771447  0.82801950  0.24559832    -0.57900
C108        C  0.48222430  0.93556104  0.22504546     0.75800
C109        C  0.45352197  0.87784084  0.36895773     0.78200
Cd110      Cd  0.45451887  0.85736464  0.26488970     1.37500
O111        O  0.37993965  0.81335609  0.25781341    -0.56800
O112        O  0.42813716  0.87555637  0.33664796    -0.55600
C113        C  0.48496629  0.81821025  0.20047294     0.78200
O114        O  0.48253535  0.87376788  0.35238081    -0.58000
O115        O  0.41428793  0.79256014  0.30002436    -0.56400
O116        O  0.50607221  0.92650998  0.24667425    -0.56400
O117        O  0.46080383  0.82917795  0.18469919    -0.55600
O118        O  0.20407389  0.63904759  0.36735874    -0.56800
C119        C  0.09239271  0.53867351  0.40461194     0.75800
O120        O  0.15681968  0.53587849  0.27100288    -0.57900
C121        C  0.23814708  0.64324542  0.35596422     0.75800
C122        C  0.20444382  0.52688408  0.41718381     0.78200
Cd123      Cd  0.16877672  0.56421314  0.35891945     1.37500
O124        O  0.12223370  0.57431827  0.41178887    -0.56800
O125        O  0.18965530  0.54659792  0.43714512    -0.55600
C126        C  0.15279378  0.56416454  0.25236330     0.78200
O127        O  0.19982710  0.52126871  0.36978881    -0.58000
O128        O  0.09891664  0.51477190  0.37850753    -0.56400
O129        O  0.23965813  0.61126099  0.35070670    -0.56400
O130        O  0.15405242  0.58993960  0.28328839    -0.55600
O131        O  0.45871500  0.57525340  0.54848209    -0.56800
C132        C  0.40405449  0.63847141  0.60984342     0.75800
O133        O  0.32535813  0.51788271  0.58447606    -0.57900
C134        C  0.45227180  0.53951742  0.55411422     0.75800
C135        C  0.42476765  0.56724688  0.70228835     0.78200
Cd136      Cd  0.40001003  0.56317851  0.59831244     1.37500
O137        O  0.43089942  0.63688618  0.58335907    -0.56800
O138        O  0.44576655  0.59349284  0.66949540    -0.55600
C139        C  0.32694008  0.52660023  0.53798476     0.78200
O140        O  0.39170309  0.53660275  0.68673660    -0.58000
O141        O  0.37558485  0.60527868  0.62692477    -0.56400
O142        O  0.41980193  0.51421007  0.57641313    -0.56400
O143        O  0.36201033  0.54907448  0.51966901    -0.55600
O144        O  0.43583248  0.81423025  0.69179728    -0.56800
C145        C  0.45106360  0.92953583  0.73496818     0.75800
O146        O  0.38520264  0.86688389  0.59991372    -0.57900
C147        C  0.40664344  0.78372514  0.66966766     0.75800
C148        C  0.33125465  0.81003089  0.75181232     0.78200
Cd149      Cd  0.40082703  0.85306395  0.68686915     1.37500
O150        O  0.46016174  0.90196571  0.73613119    -0.56800
O151        O  0.36730707  0.82252274  0.76624273    -0.55600
C152        C  0.41944749  0.87494152  0.58216317     0.78200
O153        O  0.32704882  0.82025123  0.70763335    -0.58000
O154        O  0.41749575  0.92040175  0.71444964    -0.56400
O155        O  0.37577671  0.78579634  0.65803744    -0.56400
O156        O  0.44460746  0.87560493  0.61353818    -0.55600
C157        C  0.37151083  0.67429099  0.64600110    -0.20300
C158        C  0.40554834  0.67663752  0.62265751    -0.08300
C159        C  0.44081272  0.71490044  0.61602624     0.30500
C160        C  0.44193248  0.74999017  0.63362802    -0.20300
C161        C  0.40769152  0.74717937  0.65678892    -0.08300
C162        C  0.37239291  0.70915565  0.66254239     0.30500
F163        F  0.33878258  0.70569654  0.68463323    -0.18900
H164        H  0.34396956  0.64528090  0.65169126     0.18900
H165        H  0.46898872  0.77936683  0.62788429     0.18900
F166        F  0.47412906  0.71842568  0.59312436    -0.18800
C167        C  0.26118207  0.51298685  0.42464176    -0.20300
C168        C  0.22901009  0.51469279  0.44745740    -0.08300
C169        C  0.22541613  0.51192062  0.50035241     0.30500
C170        C  0.25557900  0.51148550  0.52977264    -0.20300
C171        C  0.29014836  0.51455862  0.50708775    -0.08300
C172        C  0.29173258  0.51335067  0.45407603     0.30500
F173        F  0.32410295  0.51512580  0.43066969    -0.18900
H174        H  0.26458934  0.51486478  0.38402745     0.18900
H175        H  0.25351593  0.51222258  0.57046481     0.18900
F176        F  0.19410896  0.51227204  0.52381214    -0.18800
C177        C  0.46790520  0.88846556  0.51124230    -0.20300
C178        C  0.42972346  0.88123630  0.52754750    -0.08300
C179        C  0.40104449  0.87643714  0.49095397     0.30500
C180        C  0.40997149  0.87740579  0.43957012    -0.20300
C181        C  0.44740481  0.88263776  0.42335716    -0.08300
C182        C  0.47664052  0.88895529  0.45985779     0.30500
F183        F  0.51323877  0.89447435  0.44609926    -0.18900
H184        H  0.49073476  0.89234594  0.53840328     0.18900
H185        H  0.38670176  0.87230431  0.41240659     0.18900
F186        F  0.36372441  0.86901658  0.50459149    -0.18800
C187        C  0.27025103  0.71314861  0.32126143    -0.20300
C188        C  0.27417450  0.68278593  0.34542811    -0.08300
C189        C  0.31278270  0.68770862  0.35153547     0.30500
C190        C  0.34667404  0.72156794  0.33191249    -0.20300
C191        C  0.34289992  0.75121885  0.30560848    -0.08300
C192        C  0.30442194  0.74720462  0.30117173     0.30500
F193        F  0.29972441  0.77576427  0.27721336    -0.18900
H194        H  0.24056363  0.70951778  0.31572472     0.18900
H195        H  0.37598749  0.72416567  0.33678863     0.18900
F196        F  0.31767107  0.65921109  0.37544366    -0.18800
C197        C  0.47128622  0.61182152  0.77113835    -0.20300
C198        C  0.43825802  0.57384564  0.75596375    -0.08300
C199        C  0.41759292  0.54411949  0.79290416     0.30500
C200        C  0.42852871  0.55301313  0.84384431    -0.20300
C201        C  0.46005231  0.59178770  0.85931918    -0.08300
C202        C  0.48203114  0.62082174  0.82209601     0.30500
F203        F  0.51256383  0.65860369  0.83492111    -0.18900
H204        H  0.48798539  0.63538477  0.74364224     0.18900
H205        H  0.41098363  0.52988300  0.87149381     0.18900
F206        F  0.38605028  0.50687369  0.78016151    -0.18800
C207        C  0.49832903  0.76127176  0.19112456    -0.20300
C208        C  0.49498483  0.79256355  0.16870885    -0.08300
C209        C  0.49523787  0.79492942  0.11571158     0.30500
C210        C  0.49676898  0.76534104  0.08599713    -0.20300
C211        C  0.49651264  0.73214533  0.10854576    -0.08300
C212        C  0.49834128  0.73090673  0.16146339     0.30500
F213        F  0.49820406  0.69929382  0.18456718    -0.18900
H214        H  0.49785355  0.75858550  0.23179929     0.18900
H215        H  0.49498108  0.76671911  0.04535307     0.21300
F216        F  0.49209647  0.82475438  0.09263722    -0.18800
C217        C  0.14825548  0.60317547  0.17978066    -0.20300
C218        C  0.14865949  0.56871932  0.19744407    -0.08300
C219        C  0.14800470  0.54098530  0.16202931     0.30500
C220        C  0.14893570  0.54869739  0.11037779    -0.20300
C221        C  0.15049869  0.58413396  0.09276102    -0.08300
C222        C  0.14915056  0.61087265  0.12810122     0.30500
F223        F  0.14969496  0.64494590  0.11297238    -0.18900
H224        H  0.14843791  0.62499136  0.20608350     0.18900
H225        H  0.14948999  0.52724313  0.08411395     0.18900
F226        F  0.14753366  0.50694354  0.17711797    -0.18800
C227        C  0.27073027  0.75109699  0.86605300    -0.20300
C228        C  0.23570055  0.71912403  0.84346701    -0.08300
C229        C  0.22987096  0.72070044  0.79126109     0.30500
C230        C  0.25968862  0.75243859  0.76209932    -0.20300
C231        C  0.29624594  0.78255274  0.78414904    -0.08300
C232        C  0.30095765  0.78216953  0.83677902     0.30500
F233        F  0.33564445  0.81079690  0.85973890    -0.18900
H234        H  0.27611050  0.75058501  0.90607258     0.18900
H235        H  0.25534411  0.75188158  0.72168214     0.18900
F236        F  0.19617617  0.69068971  0.76804212    -0.18800
C237        C  0.26866748  0.56263988  0.97291170    -0.20300
C238        C  0.26906734  0.58829117  0.93507162    -0.08300
C239        C  0.30579517  0.61672825  0.91277007     0.30500
C240        C  0.34203557  0.62148576  0.93045266    -0.20300
C241        C  0.34231842  0.59832623  0.97115130    -0.08300
C242        C  0.30523370  0.56762339  0.99110425     0.30500
F243        F  0.30434990  0.54418452  0.02985348    -0.18900
H244        H  0.24044538  0.54110574  0.99106176     0.18900
H245        H  0.37007246  0.64457818  0.91340309     0.18900
F246        F  0.30673983  0.64174813  0.87602583    -0.18800
C247        C  0.97996525  0.47416658  0.42614834    -0.20300
C248        C  0.96923130  0.50413027  0.42824076    -0.08300
C249        C  0.99998602  0.54512524  0.43344410     0.30500
C250        C  0.04075427  0.55606626  0.43071547    -0.20300
C251        C  0.05122879  0.52634869  0.42216574    -0.08300
C252        C  0.02063552  0.48511141  0.42274568     0.30500
F253        F  0.02977773  0.45546794  0.41651698    -0.18900
H254        H  0.95683822  0.44234089  0.42270350     0.18900
H255        H  0.06387217  0.58800531  0.43112345     0.18900
F256        F  0.99070762  0.57480599  0.43766222    -0.18800
C257        C  0.54866647  0.04924937  0.21575001    -0.20300
C258        C  0.51931402  0.06072232  0.21897695    -0.08300
C259        C  0.47801770  0.03083648  0.21424146     0.30500
C260        C  0.46630057  0.98989098  0.21082938    -0.20300
C261        C  0.49545635  0.97812541  0.21329293    -0.08300
C262        C  0.53692998  0.00824302  0.21350385     0.30500
F263        F  0.56608325  0.99810804  0.21501128    -0.18900
H264        H  0.58067238  0.07177368  0.21912573     0.18900
H265        H  0.43420569  0.96729269  0.21052446     0.18900
F266        F  0.44882955  0.04090479  0.21615212    -0.18800
C267        C  0.74235161  0.33607737  0.29499798    -0.20300
C268        C  0.74874149  0.34833506  0.34580937    -0.08300
C269        C  0.71995303  0.32426979  0.38204789     0.30500
C270        C  0.68365523  0.28999458  0.36677090    -0.20300
C271        C  0.67637057  0.27888325  0.31552516    -0.08300
C272        C  0.70665715  0.30113102  0.27993756     0.30500
F273        F  0.70058618  0.29080480  0.23034041    -0.18900
H274        H  0.76454207  0.35442378  0.26670773     0.18900
H275        H  0.66072339  0.27266844  0.39479954     0.18900
F276        F  0.72553088  0.33553949  0.43136028    -0.18800
C277        C  0.49515373  0.04119698  0.75960909    -0.20300
C278        C  0.53669503  0.05532086  0.75350716    -0.08300
C279        C  0.54983716  0.02705813  0.75323650     0.30500
C280        C  0.52149277  0.98544081  0.75270656    -0.20300
C281        C  0.47974667  0.97144205  0.75209284    -0.08300
C282        C  0.46679533  0.99952502  0.75891824     0.30500
F283        F  0.42666032  0.98686643  0.76154578    -0.18900
H284        H  0.48429350  0.06232016  0.76098829     0.18900
H285        H  0.53225568  0.96437848  0.74837380     0.18900
F286        F  0.58988725  0.03950203  0.74977218    -0.18800
C287        C  0.61001302  0.15260890  0.50277374    -0.20300
C288        C  0.58283968  0.15045887  0.53973657    -0.08300
C289        C  0.54514658  0.14522095  0.52415537     0.30500
C290        C  0.53632360  0.14505255  0.47294842    -0.20300
C291        C  0.56436670  0.14932530  0.43605945    -0.08300
C292        C  0.60091473  0.15182655  0.45149843     0.30500
F293        F  0.62903597  0.15576744  0.41726658    -0.18900
H294        H  0.63901543  0.15636102  0.51350321     0.18900
H295        H  0.50792395  0.14271267  0.46223036     0.18900
F296        F  0.51720292  0.14179386  0.55831332    -0.18800
C297        C  0.47109001  0.48748604  0.53554345    -0.20300
C298        C  0.48273945  0.52858473  0.54028903    -0.08300
C299        C  0.52428680  0.55821066  0.54206801     0.30500
C300        C  0.55313189  0.54643157  0.54611150    -0.20300
C301        C  0.54106875  0.50510573  0.54744170    -0.08300
C302        C  0.50007551  0.47573724  0.53837486     0.30500
F303        F  0.48736084  0.43552012  0.53727709    -0.18900
H304        H  0.43925701  0.46421853  0.53327000     0.18900
H305        H  0.58463704  0.56965800  0.55198746     0.18900
F306        F  0.53682427  0.59830602  0.54586499    -0.18800
C307        C  0.64746460  0.32279462  0.68177849    -0.20300
C308        C  0.61067823  0.28564167  0.68013079    -0.08300
C309        C  0.57531764  0.28446776  0.66337442     0.30500
C310        C  0.57717183  0.32018863  0.64764000    -0.20300
C311        C  0.61415696  0.35736917  0.64905576    -0.08300
C312        C  0.64930324  0.35839790  0.66671369     0.30500
F313        F  0.68575266  0.39361021  0.66834237    -0.18900
H314        H  0.67510323  0.32416052  0.69413834     0.18900
H315        H  0.54972044  0.31881667  0.63456956     0.18900
F316        F  0.53957838  0.24868251  0.65986658    -0.18800
C317        C  0.75541571  0.51670522  0.44255860    -0.20300
C318        C  0.78759287  0.51455384  0.46448057    -0.08300
C319        C  0.79165971  0.51678665  0.51737285     0.30500
C320        C  0.76204000  0.51743794  0.54763721    -0.20300
C321        C  0.72761528  0.51514910  0.52571137    -0.08300
C322        C  0.72540611  0.51658450  0.47284510     0.30500
F323        F  0.69303178  0.51554856  0.45045354    -0.18900
H324        H  0.75167722  0.51515179  0.40196465     0.18900
H325        H  0.76438465  0.51634890  0.58824180     0.18900
F326        F  0.82304267  0.51596175  0.53988403    -0.18800
C327        C  0.53244186  0.55629024  0.09914438    -0.20300
C328        C  0.49179683  0.54402041  0.08923634    -0.08300
C329        C  0.46243618  0.50234640  0.08811330     0.30500
C330        C  0.47456054  0.47369636  0.09012943    -0.20300
C331        C  0.51590589  0.48619078  0.09376031    -0.08300
C332        C  0.54450866  0.52759963  0.10186271     0.30500
F333        F  0.58465695  0.54089967  0.10689067    -0.18900
H334        H  0.55538201  0.58827206  0.10087456     0.18900
H335        H  0.45189433  0.44193562  0.08457477     0.18900
F336        F  0.42275119  0.48931393  0.07885418    -0.18800
C337        C  0.53641050  0.41837212  0.84010769    -0.20300
C338        C  0.56238324  0.44507649  0.87741175    -0.08300
C339        C  0.59687198  0.48194323  0.86230666     0.30500
C340        C  0.60614155  0.49049607  0.81113573    -0.20300
C341        C  0.58124892  0.46281402  0.77386693    -0.08300
C342        C  0.54548574  0.42706954  0.78896002     0.30500
F343        F  0.52011804  0.39930810  0.75452519    -0.18900
H344        H  0.50970791  0.38992611  0.85049978     0.18900
H345        H  0.63370201  0.51817515  0.80078202     0.18900
F346        F  0.62306462  0.50888590  0.89684786    -0.18800
C347        C  0.51581583  0.23786769  0.13203287    -0.20300
C348        C  0.51269377  0.24016652  0.18468459    -0.08300
C349        C  0.50488194  0.26956760  0.20472949     0.30500
C350        C  0.50492267  0.29881043  0.17314846    -0.20300
C351        C  0.51157286  0.29852702  0.12106232    -0.08300
C352        C  0.51489007  0.26651800  0.10036651     0.30500
F353        F  0.52174778  0.26546396  0.05032389    -0.18900
H354        H  0.52152711  0.21532150  0.11556868     0.18900
H355        H  0.50216694  0.32317350  0.18981967     0.18900
F356        F  0.50118202  0.27258211  0.25520238    -0.18800
C357        C  0.02005916  0.54828710  0.88293680    -0.20300
C358        C  0.04629034  0.53290918  0.88020335    -0.08300
C359        C  0.02985700  0.49066917  0.87685986     0.30500
C360        C  0.98809764  0.46439932  0.88265607    -0.20300
C361        C  0.96237361  0.47999128  0.89057157    -0.08300
C362        C  0.97837293  0.52212001  0.88782587     0.30500
F363        F  0.95449004  0.53835453  0.89523061    -0.18900
H364        H  0.03210242  0.58073715  0.88510442     0.18900
H365        H  0.97621968  0.43196937  0.88397724     0.18900
F366        F  0.05429817  0.47472077  0.87328648    -0.18800
C367        C  0.88334235  0.42496719  0.14732582    -0.20300
C368        C  0.87508986  0.44618714  0.11099564    -0.08300
C369        C  0.86980456  0.47846722  0.12686215     0.30500
C370        C  0.87101141  0.48788411  0.17815842    -0.20300
C371        C  0.87767059  0.46558208  0.21472243    -0.08300
C372        C  0.88490290  0.43459573  0.19855679     0.30500
F373        F  0.89174478  0.41219976  0.23225798    -0.18900
H374        H  0.88762118  0.40016393  0.13617155     0.18900
H375        H  0.86506535  0.51159652  0.18933724     0.18900
F376        F  0.86092213  0.49940152  0.09318731    -0.18800
C377        C  0.75609382  0.26738144  0.78091176    -0.20300
C378        C  0.71853237  0.23736459  0.80033093    -0.08300
C379        C  0.71265819  0.23534544  0.85296295     0.30500
C380        C  0.74250705  0.26465659  0.88480396    -0.20300
C381        C  0.77817281  0.29704716  0.86474906    -0.08300
C382        C  0.78551212  0.29732472  0.81267755     0.30500
F383        F  0.82015461  0.32780664  0.79214437    -0.18900
H384        H  0.76146870  0.26962298  0.74063642     0.18900
H385        H  0.73617309  0.26391206  0.92472758     0.18900
F386        F  0.67703840  0.20655510  0.87346172    -0.18800
C387        C  0.70426687  0.43596383  0.04198664    -0.20300
C388        C  0.67639348  0.43028830  0.00411911    -0.08300
C389        C  0.68573424  0.42772146  0.95335236     0.30500
C390        C  0.72134923  0.42816265  0.94110670    -0.20300
C391        C  0.74737169  0.43021350  0.97940732    -0.08300
C392        C  0.73942610  0.43544793  0.02980463     0.30500
F393        F  0.76505243  0.43871924  0.06733656    -0.18900
H394        H  0.69766681  0.43830982  0.08113471     0.18900
H395        H  0.72726729  0.42430319  0.90216171     0.18900
F396        F  0.65976250  0.42344879  0.91574800    -0.18800
loop_ 
_geom_bond_atom_site_label_1 
_geom_bond_atom_site_label_2 
_geom_bond_distance 
_geom_bond_site_symmetry_2 
_ccdc_geom_bond_type 
O1            C4   1.271       .  A
O1           Cd6   2.469       .  S
C2           O11   1.269       .  A
C2            O7   1.269       .  A
C2          C361   1.469       .  S
O3            C9   1.276       .  A
O3           Cd6   2.495   1_554  S
C4           O12   1.263       .  A
C4          C391   1.461       .  S
C5           O10   1.272       .  A
C5            O8   1.264       .  A
C5          C381   1.478       .  S
Cd6          O13   2.415   1_556  S
Cd6          O12   2.383       .  S
Cd6          O11   2.424       .  S
Cd6           O7   2.416       .  S
Cd6          O10   2.497       .  S
Cd6           O8   2.427       .  S
C9           O13   1.264       .  A
C9          C368   1.484       .  S
O14          C17   1.271       .  A
O14         Cd19   2.479       .  S
C15          O24   1.269       .  A
C15          O20   1.269       .  A
C15         C331   1.474       .  S
O16          C22   1.275       .  A
O16         Cd19   2.494   1_556  S
C17          O25   1.262   1_554  A
C17         C388   1.465       .  S
C18          O23   1.271       .  A
C18          O21   1.265       .  A
C18         C351   1.479       .  S
Cd19         O26   2.417   1_554  S
Cd19         O25   2.380   1_554  S
Cd19         O24   2.418       .  S
Cd19         O20   2.437       .  S
Cd19         O23   2.497       .  S
Cd19         O21   2.433       .  S
C22          O26   1.264       .  A
C22         C338   1.486       .  S
O27          C30   1.270       .  A
O27         Cd32   2.445       .  S
C28          O37   1.265       .  A
C28          O33   1.272       .  A
C28         C311   1.470       .  S
O29          C35   1.273       .  A
O29         Cd32   2.494       .  S
C30          O38   1.270       .  A
C30         C301   1.476       .  S
C31          O36   1.276       .  A
C31          O34   1.264       .  A
C31         C341   1.488       .  S
Cd32         O39   2.422       .  S
Cd32         O38   2.419       .  S
Cd32         O37   2.378       .  S
Cd32         O33   2.461       .  S
Cd32         O36   2.506       .  S
Cd32         O34   2.411       .  S
C35          O39   1.266       .  A
C35         C321   1.479       .  S
O40          C43   1.272       .  A
O40         Cd45   2.471       .  S
C41          O50   1.269       .  A
C41          O46   1.271       .  A
C41         C278   1.477       .  S
O42          C48   1.276       .  A
O42         Cd45   2.514       .  S
C43          O51   1.265       .  A
C43         C308   1.466       .  S
C44          O49   1.274       .  A
C44          O47   1.267       .  A
C44         C378   1.484       .  S
Cd45         O52   2.402       .  S
Cd45         O51   2.380       .  S
Cd45         O50   2.414       .  S
Cd45         O46   2.453       .  S
Cd45         O49   2.491       .  S
Cd45         O47   2.426       .  S
C48          O52   1.263       .  A
C48         C288   1.487       .  S
O53          C56   1.271       .  A
O53         Cd58   2.463       .  S
C54          O63   1.269       .  A
C54          O59   1.270       .  A
C54         C258   1.472       .  S
O55          C61   1.277       .  A
O55         Cd58   2.499       .  S
C56          O64   1.264       .  A
C56         C271   1.465       .  S
C57          O62   1.273       .  A
C57          O60   1.265       .  A
C57         C348   1.484       .  S
Cd58         O65   2.402       .  S
Cd58         O64   2.392       .  S
Cd58         O63   2.418       .  S
Cd58         O59   2.435       .  S
Cd58         O62   2.509       .  S
Cd58         O60   2.430       .  S
C61          O65   1.264       .  A
C61         C291   1.485       .  S
O66          C69   1.270       .  A
O66         Cd71   2.485       .  S
C67          O76   1.269       .  A
C67          O72   1.269       .  A
C67         C248   1.474       .  S
O68          C74   1.275       .  A
O68         Cd71   2.505       .  S
C69          O77   1.262       .  A
C69         C268   1.462       .  S
C70          O75   1.271       .  A
C70          O73   1.265       .  A
C70         C318   1.481       .  S
Cd71         O78   2.410       .  S
Cd71         O77   2.384       .  S
Cd71         O76   2.435       .  S
Cd71         O72   2.435       .  S
Cd71         O75   2.501       .  S
Cd71         O73   2.433       .  S
C74          O78   1.263       .  A
C74         C371   1.487       .  S
O79          C82   1.268       .  A
O79         Cd84   2.479       .  S
C80          O89   1.267       .  A
C80          O85   1.269       .  A
C80         C358   1.469       .  S
O81          C87   1.272       .  A
O81         Cd84   2.510   1_554  S
C82          O90   1.262       .  A
C82         C238   1.456       .  S
C83          O88   1.271       .  A
C83          O86   1.268       .  A
C83         C228   1.485       .  S
Cd84         O91   2.427   1_556  S
Cd84         O90   2.366       .  S
Cd84         O89   2.398       .  S
Cd84         O85   2.456       .  S
Cd84         O88   2.479       .  S
Cd84         O86   2.461       .  S
C87          O91   1.262       .  A
C87         C221   1.486       .  S
O92          C95   1.268       .  A
O92         Cd97   2.424       .  S
C93         O102   1.264       .  A
C93          O98   1.270   1_556  A
C93         C241   1.469       .  S
O94         C100   1.272       .  A
O94         Cd97   2.506       .  S
C95         O103   1.270       .  A
C95         C328   1.469       .  S
C96         O101   1.275       .  A
C96          O99   1.263       .  A
C96         C201   1.490       .  S
Cd97        O104   2.437       .  S
Cd97        O103   2.423       .  S
Cd97        O102   2.365   1_554  S
Cd97         O98   2.459       .  S
Cd97        O101   2.513   1_554  S
Cd97         O99   2.424   1_554  S
C100        O104   1.265       .  A
C100        C211   1.481       .  S
O105        C108   1.272       .  A
O105       Cd110   2.439       .  S
C106        O115   1.265       .  A
C106        O111   1.275       .  A
C106        C191   1.472       .  S
O107        C113   1.273       .  A
O107       Cd110   2.482       .  S
C108        O116   1.269       .  A
C108        C261   1.474       .  S
C109        O114   1.277       .  A
C109        O112   1.265       .  A
C109        C181   1.487       .  S
Cd110       O117   2.447       .  S
Cd110       O116   2.411       .  S
Cd110       O115   2.349       .  S
Cd110       O111   2.473       .  S
Cd110       O114   2.496       .  S
Cd110       O112   2.416       .  S
C113        O117   1.268       .  A
C113        C208   1.483       .  S
O118        C121   1.268       .  A
O118       Cd123   2.474       .  S
C119        O128   1.268       .  A
C119        O124   1.268       .  A
C119        C251   1.473       .  S
O120        C126   1.272       .  A
O120       Cd123   2.508       .  S
C121        O129   1.262       .  A
C121        C188   1.464       .  S
C122        O127   1.271       .  A
C122        O125   1.267       .  A
C122        C168   1.484       .  S
Cd123       O130   2.430       .  S
Cd123       O129   2.381       .  S
Cd123       O128   2.418       .  S
Cd123       O124   2.449       .  S
Cd123       O127   2.492       .  S
Cd123       O125   2.443       .  S
C126        O130   1.262       .  A
C126        C218   1.486       .  S
O131        C134   1.270       .  A
O131       Cd136   2.442       .  S
C132        O141   1.265       .  A
C132        O137   1.272       .  A
C132        C158   1.471       .  S
O133        C139   1.273       .  A
O133       Cd136   2.499       .  S
C134        O142   1.269       .  A
C134        C298   1.473       .  S
C135        O140   1.276       .  A
C135        O138   1.264       .  A
C135        C198   1.490       .  S
Cd136       O143   2.439       .  S
Cd136       O142   2.423       .  S
Cd136       O141   2.362       .  S
Cd136       O137   2.474       .  S
Cd136       O140   2.517       .  S
Cd136       O138   2.426       .  S
C139        O143   1.267       .  A
C139        C171   1.484       .  S
O144        C147   1.272       .  A
O144       Cd149   2.464       .  S
C145        O154   1.269       .  A
C145        O150   1.270       .  A
C145        C281   1.476       .  S
O146        C152   1.275       .  A
O146       Cd149   2.510       .  S
C147        O155   1.264       .  A
C147        C161   1.459       .  S
C148        O153   1.274       .  A
C148        O151   1.267       .  A
C148        C231   1.486       .  S
Cd149       O156   2.425       .  S
Cd149       O155   2.365       .  S
Cd149       O154   2.427       .  S
Cd149       O150   2.450       .  S
Cd149       O153   2.500       .  S
Cd149       O151   2.438       .  S
C152        O156   1.264       .  A
C152        C178   1.490       .  S
C157        C158   1.405       .  A
C157        C162   1.387       .  A
C157        H164   1.083       .  S
C158        C159   1.408       .  A
C159        C160   1.400       .  A
C159        F166   1.357       .  S
C160        C161   1.402       .  A
C160        H165   1.083       .  S
C161        C162   1.401       .  A
C162        F163   1.359       .  S
C167        C168   1.404       .  A
C167        C172   1.401       .  A
C167        H174   1.084       .  S
C168        C169   1.409       .  A
C169        C170   1.402       .  A
C169        F176   1.357       .  S
C170        C171   1.404       .  A
C170        H175   1.084       .  S
C171        C172   1.409       .  A
C172        F173   1.357       .  S
C177        C178   1.411       .  A
C177        C182   1.402       .  A
C177        H184   1.083       .  S
C178        C179   1.406       .  A
C179        C180   1.401       .  A
C179        F186   1.357       .  S
C180        C181   1.410       .  A
C180        H185   1.083       .  S
C181        C182   1.404       .  A
C182        F183   1.357       .  S
C187        C188   1.405       .  A
C187        C192   1.400       .  A
C187        H194   1.083       .  S
C188        C189   1.402       .  A
C189        C190   1.387       .  A
C189        F196   1.358       .  S
C190        C191   1.405       .  A
C190        H195   1.083       .  S
C191        C192   1.407       .  A
C192        F193   1.357       .  S
C197        C198   1.411       .  A
C197        C202   1.402       .  A
C197        H204   1.083       .  S
C198        C199   1.405       .  A
C199        C200   1.403       .  A
C199        F206   1.357       .  S
C200        C201   1.411       .  A
C200        H205   1.083       .  S
C201        C202   1.405       .  A
C202        F203   1.357       .  S
C207        C208   1.404       .  A
C207        C212   1.401       .  A
C207        H214   1.084       .  S
C208        C209   1.409       .  A
C209        C210   1.403       .  A
C209        F216   1.357       .  S
C210        C211   1.403       .  A
C210        H215   1.084       .  S
C211        C212   1.408       .  A
C212        F213   1.358       .  S
C217        C218   1.410       .  A
C217        C222   1.401       .  A
C217        H224   1.083       .  S
C218        C219   1.405       .  A
C219        C220   1.400       .  A
C219        F226   1.357       .  S
C220        C221   1.410       .  A
C220        H225   1.083       .  S
C221        C222   1.405       .  A
C222        F223   1.357       .  S
C227        C228   1.404       .  A
C227        C232   1.400       .  A
C227        H234   1.084       .  S
C228        C229   1.409       .  A
C229        C230   1.404       .  A
C229        F236   1.357       .  S
C230        C231   1.405       .  A
C230        H235   1.084       .  S
C231        C232   1.409       .  A
C232        F233   1.357       .  S
C237        C238   1.403       .  A
C237        C242   1.399       .  A
C237        H244   1.083       .  S
C238        C239   1.399       .  A
C239        C240   1.386       .  A
C239        F246   1.358       .  S
C240        C241   1.405       .  A
C240        H245   1.083       .  S
C241        C242   1.407       .  A
C242        F243   1.357   1_556  S
C247        C248   1.404       .  A
C247        C252   1.395   1_655  A
C247        H254   1.083       .  S
C248        C249   1.407       .  A
C249        C250   1.397   1_655  A
C249        F256   1.357       .  S
C250        C251   1.404       .  A
C250        H255   1.083       .  S
C251        C252   1.406       .  A
C252        F253   1.358       .  S
C257        C258   1.404       .  A
C257        C262   1.396       .  A
C257        H264   1.083       .  S
C258        C259   1.406       .  A
C259        C260   1.395   1_545  A
C259        F266   1.357       .  S
C260        C261   1.404       .  A
C260        H265   1.083       .  S
C261        C262   1.408   1_565  A
C262        F263   1.358   1_545  S
C267        C268   1.405       .  A
C267        C272   1.394       .  A
C267        H274   1.084       .  S
C268        C269   1.400       .  A
C269        C270   1.396       .  A
C269        F276   1.358       .  S
C270        C271   1.407       .  A
C270        H275   1.084       .  S
C271        C272   1.401       .  A
C272        F273   1.357       .  S
C277        C278   1.405       .  A
C277        C282   1.398   1_545  A
C277        H284   1.083       .  S
C278        C279   1.408       .  A
C279        C280   1.396   1_545  A
C279        F286   1.358       .  S
C280        C281   1.403       .  A
C280        H285   1.083       .  S
C281        C282   1.407       .  A
C282        F283   1.357       .  S
C287        C288   1.402       .  A
C287        C292   1.401       .  A
C287        H294   1.083       .  S
C288        C289   1.414       .  A
C289        C290   1.399       .  A
C289        F296   1.357       .  S
C290        C291   1.400       .  A
C290        H295   1.083       .  S
C291        C292   1.414       .  A
C292        F293   1.358       .  S
C297        C298   1.404       .  A
C297        C302   1.397       .  A
C297        H304   1.083       .  S
C298        C299   1.406       .  A
C299        C300   1.395       .  A
C299        F306   1.358       .  S
C300        C301   1.404       .  A
C300        H305   1.083       .  S
C301        C302   1.407       .  A
C302        F303   1.357       .  S
C307        C308   1.401       .  A
C307        C312   1.390       .  A
C307        H314   1.084       .  S
C308        C309   1.405       .  A
C309        C310   1.399       .  A
C309        F316   1.357       .  S
C310        C311   1.405       .  A
C310        H315   1.083       .  S
C311        C312   1.407       .  A
C312        F313   1.358       .  S
C317        C318   1.403       .  A
C317        C322   1.401       .  A
C317        H324   1.084       .  S
C318        C319   1.409       .  A
C319        C320   1.401       .  A
C319        F326   1.358       .  S
C320        C321   1.403       .  A
C320        H325   1.084       .  S
C321        C322   1.408       .  A
C322        F323   1.358       .  S
C327        C328   1.402       .  A
C327        C332   1.395       .  A
C327        H334   1.083       .  S
C328        C329   1.406       .  A
C329        C330   1.394       .  A
C329        F336   1.358       .  S
C330        C331   1.404       .  A
C330        H335   1.083       .  S
C331        C332   1.408       .  A
C332        F333   1.357       .  S
C337        C338   1.402       .  A
C337        C342   1.400       .  A
C337        H344   1.083       .  S
C338        C339   1.414       .  A
C339        C340   1.401       .  A
C339        F346   1.357       .  S
C340        C341   1.402       .  A
C340        H345   1.083       .  S
C341        C342   1.414       .  A
C342        F343   1.357       .  S
C347        C348   1.408       .  A
C347        C352   1.400       .  A
C347        H354   1.083       .  S
C348        C349   1.406       .  A
C349        C350   1.402       .  A
C349        F356   1.357       .  S
C350        C351   1.406       .  A
C350        H355   1.083       .  S
C351        C352   1.404       .  A
C352        F353   1.358       .  S
C357        C358   1.402       .  A
C357        C362   1.392   1_455  A
C357        H364   1.083       .  S
C358        C359   1.406       .  A
C359        C360   1.397   1_455  A
C359        F366   1.358       .  S
C360        C361   1.404       .  A
C360        H365   1.083       .  S
C361        C362   1.405       .  A
C362        F363   1.358       .  S
C367        C368   1.400       .  A
C367        C372   1.400       .  A
C367        H374   1.083       .  S
C368        C369   1.413       .  A
C369        C370   1.401       .  A
C369        F376   1.358       .  S
C370        C371   1.403       .  A
C370        H375   1.083       .  S
C371        C372   1.414       .  A
C372        F373   1.357       .  S
C377        C378   1.405       .  A
C377        C382   1.401       .  A
C377        H384   1.084       .  S
C378        C379   1.411       .  A
C379        C380   1.400       .  A
C379        F386   1.357       .  S
C380        C381   1.401       .  A
C380        H385   1.084       .  S
C381        C382   1.409       .  A
C382        F383   1.358       .  S
C387        C388   1.399       .  A
C387        C392   1.395       .  A
C387        H394   1.083       .  S
C388        C389   1.409   1_554  A
C389        C390   1.394       .  A
C389        F396   1.358       .  S
C390        C391   1.397       .  A
C390        H395   1.083       .  S
C391        C392   1.407   1_556  A
C392        F393   1.358       .  S
