geometry optimzed in LAMMPS
_audit_creation_date              2020-12-01 
_audit_creation_method            'lammps2cif' 
_symmetry_space_group_name_H-M    'P1' 
_symmetry_Int_Tables_number       1 
_symmetry_cell_setting            triclinic 
loop_ 
_symmetry_equiv_pos_as_xyz 
  x,y,z 
_cell_length_a                    44.22726941 
_cell_length_b                    45.2101162137157 
_cell_length_c                    44.55095429860686 
_cell_angle_alpha                 90.43769405003634 
_cell_angle_beta                  90.26460221687755 
_cell_angle_gamma                 90.66062476068089 
loop_ 
_atom_site_label 
_atom_site_type_symbol 
_atom_site_fract_x 
_atom_site_fract_y 
_atom_site_fract_z 
_atom_site_charge 
C1          C  0.79649669  0.82007881  0.02738368     0.03700
C2          C  0.81598510  0.84454284  0.02420619    -0.12400
C3          C  0.82262274  0.85595725  0.99573731     0.01200
C4          C  0.81023785  0.84180732  0.97032356    -0.11000
C5          C  0.79237870  0.81618097  0.97322387     0.03700
C6          C  0.78531974  0.80541889  0.00172439    -0.10400
H7          H  0.82514245  0.85536785  0.04410010     0.09300
H8          H  0.81427321  0.85078677  0.94819404     0.06800
H9          H  0.77049168  0.78631612  0.00393579     0.06700
C10         C  0.76921934  0.22373835  0.03528960     0.03700
C11         C  0.79424136  0.20498048  0.03493413    -0.12400
C12         C  0.80362240  0.19106084  0.00831224     0.01200
C13         C  0.78813667  0.19751915  0.98141895    -0.11000
C14         C  0.76401714  0.21768386  0.98115273     0.03700
C15         C  0.75422082  0.23010434  0.00837551    -0.10400
H16         H  0.80640058  0.20118660  0.05569367     0.09300
H17         H  0.79522808  0.18737884  0.96054197     0.06800
H18         H  0.73535312  0.24519101  0.00853132     0.06700
C19         C  0.18747578  0.83801656  0.02232564     0.03700
C20         C  0.16321745  0.85759001  0.02187526    -0.12400
C21         C  0.15289842  0.86922297  0.99480246     0.01200
C22         C  0.16685385  0.86093901  0.96784848    -0.11000
C23         C  0.19106074  0.84112127  0.96811968     0.03700
C24         C  0.20134583  0.82965515  0.99540928    -0.10400
H25         H  0.15273718  0.86428129  0.04277771     0.09300
H26         H  0.15891597  0.86987279  0.94676542     0.06800
H27         H  0.22009720  0.81443513  0.99569679     0.06700
C28         C  0.78233206  0.06025039  0.80137909     0.03700
C29         C  0.80369519  0.05738254  0.82447763    -0.12400
C30         C  0.81430273  0.02956277  0.83264064     0.01200
C31         C  0.80329116  0.00423059  0.81779677    -0.11000
C32         C  0.78175827  0.00659776  0.79466871     0.03700
C33         C  0.77111035  0.03469931  0.78660456    -0.10400
H34         H  0.81242208  0.07696701  0.83591472     0.09300
H35         H  0.81175110  0.98269697  0.82397862     0.06800
H36         H  0.75481921  0.03671809  0.76852411     0.06700
C37         C  0.95697396  0.22147008  0.79523945     0.03700
C38         C  0.98425512  0.22428916  0.77958213    -0.12400
C39         C  0.01107515  0.21232928  0.79113039     0.01200
C40         C  0.00994105  0.19588018  0.81786669    -0.11000
C41         C  0.98264448  0.19254507  0.83375850     0.03700
C42         C  0.95653926  0.20619049  0.82254640    -0.10400
H43         H  0.98481723  0.23664908  0.75884171     0.09300
H44         H  0.03041422  0.18607172  0.82651284     0.06800
H45         H  0.93554816  0.20457694  0.83491045     0.06700
C46         C  0.95596864  0.85157159  0.79128944     0.03700
C47         C  0.96042802  0.87325296  0.81355295    -0.12400
C48         C  0.98962953  0.88303324  0.82101599     0.01200
C49         C  0.01449721  0.87162848  0.80550358    -0.11000
C50         C  0.01002902  0.85014051  0.78291742     0.03700
C51         C  0.98081988  0.84007364  0.77600563    -0.10400
H52         H  0.94121551  0.88189962  0.82568714     0.09300
H53         H  0.03720988  0.87870509  0.81161714     0.06800
H54         H  0.97752142  0.82274089  0.75931764     0.06700
C55         C  0.19090477  0.05730835  0.81179646     0.03700
C56         C  0.16805676  0.05814103  0.83348629    -0.12400
C57         C  0.15136147  0.03262346  0.84047232     0.01200
C58         C  0.15825250  0.00602120  0.82585485    -0.11000
C59         C  0.18245485  0.00447591  0.80582673     0.03700
C60         C  0.19867165  0.03021662  0.79861145    -0.10400
H61         H  0.16277551  0.07894939  0.84436949     0.09300
H62         H  0.14518882  0.98617743  0.83054773     0.06800
H63         H  0.21687549  0.02925022  0.78244444     0.06700
C64         C  0.95796421  0.81010304  0.18438001     0.03700
C65         C  0.95743068  0.83531040  0.16608987    -0.12400
C66         C  0.98414875  0.84668143  0.15327950     0.01200
C67         C  0.01170064  0.83261869  0.15973932    -0.11000
C68         C  0.01255535  0.80799246  0.17892816     0.03700
C69         C  0.98552881  0.79654975  0.19063595    -0.10400
H70         H  0.93613081  0.84625664  0.16208588     0.09300
H71         H  0.03258641  0.84121167  0.15043607     0.06800
H72         H  0.98608923  0.77771523  0.20553398     0.06700
C73         C  0.77471047  0.05385869  0.20018446     0.03700
C74         C  0.79678744  0.05106331  0.17798597    -0.12400
C75         C  0.80539422  0.02312829  0.16766779     0.01200
C76         C  0.79164812  0.99778224  0.17949431    -0.11000
C77         C  0.76944629  0.00028079  0.20170079     0.03700
C78         C  0.76092723  0.02839198  0.21211120    -0.10400
H79         H  0.80761441  0.07070890  0.16899706     0.09300
H80         H  0.79828499  0.97610759  0.17149480     0.06800
H81         H  0.74409093  0.03040670  0.22957051     0.06700
C82         C  0.95659814  0.20110714  0.24115748     0.03700
C83         C  0.95341605  0.18302196  0.21556628    -0.12400
C84         C  0.97895095  0.17283209  0.20034421     0.01200
C85         C  0.00784595  0.18076793  0.21103179    -0.11000
C86         C  0.01135304  0.19857861  0.23691145     0.03700
C87         C  0.98550360  0.20837866  0.25210066    -0.10400
H88         H  0.93105500  0.17806711  0.20666477     0.09300
H89         H  0.02760307  0.17370714  0.19871761     0.06800
H90         H  0.98784689  0.22276883  0.27155894     0.06700
Zr91       Zr  0.26775189  0.31119813  0.29386370     2.17500
O92         O  0.30315366  0.31927346  0.33546906    -0.50700
O93         O  0.25979994  0.36439441  0.29720622    -0.73900
O94         O  0.31931684  0.32112183  0.27847866    -0.80700
O95         O  0.21092681  0.28299179  0.35278028    -0.82500
O96         O  0.32524881  0.30742023  0.22967009    -0.78100
O97         O  0.25618590  0.30629776  0.34605707    -0.89700
O98         O  0.22369622  0.37703593  0.26347268    -0.75700
O99         O  0.25841528  0.32690652  0.24391856    -0.85200
O100        O  0.21447297  0.31742393  0.29136992    -0.84900
O101        O  0.28648463  0.27144036  0.26332645    -0.71600
O102        O  0.24604620  0.26389229  0.30584424    -0.83800
Zr103      Zr  0.20046430  0.24612517  0.22115115     2.26400
Zr104      Zr  0.27616683  0.28700174  0.21296074     2.06300
Zr105      Zr  0.19249829  0.27012273  0.30265705     2.10000
Zr106      Zr  0.20477912  0.33173740  0.24102879     1.78800
O107        O  0.18112621  0.22945679  0.33654846    -0.92600
O108        O  0.21535861  0.36105374  0.19660412    -0.40400
O109        O  0.18171621  0.28507219  0.25242510    -0.77000
O110        O  0.22236952  0.29329454  0.20882890    -0.95700
O111        O  0.25370896  0.23960616  0.22369549    -0.89000
O112        O  0.20994675  0.23079194  0.27117744    -0.91800
C113        C  0.24329612  0.38341149  0.28379787     1.01900
C114        C  0.23514797  0.29580883  0.36252296     1.14800
C115        C  0.33534614  0.31770367  0.25488071     1.05600
O116        O  0.28499196  0.32856512  0.17960389    -0.94000
O117        O  0.26026432  0.26990406  0.16302168    -0.89700
O118        O  0.21538338  0.24549798  0.16908713    -0.82900
C119        C  0.23698802  0.25561564  0.15296373     1.12300
O120        O  0.30624928  0.21980387  0.30785217    -0.96000
Zr121      Zr  0.26323607  0.22476748  0.27386925     1.88900
O122        O  0.20715041  0.19292757  0.21788358    -0.72600
O123        O  0.31716723  0.25837462  0.19139810    -0.51900
O124        O  0.30546606  0.20369394  0.24634731    -0.96600
O125        O  0.25347442  0.19306019  0.31680990    -0.53800
O126        O  0.24345537  0.17949273  0.25116223    -0.73100
C127        C  0.22340613  0.17352550  0.23102675     0.99200
O128        O  0.15755429  0.24617011  0.18647968    -0.62000
O129        O  0.15498863  0.30229091  0.32544416    -0.56800
O130        O  0.15019940  0.23263431  0.23752512    -0.93400
O131        O  0.14396060  0.24972167  0.28529670    -0.91900
O132        O  0.16186600  0.35584054  0.26441126    -0.92200
O133        O  0.16121277  0.33705781  0.20796822    -0.91000
C134        C  0.13433806  0.23699620  0.26110650     1.18000
H135        H  0.20782697  0.33223470  0.30554762     0.34000
H136        H  0.21685724  0.29886351  0.18868319     0.44800
H137        H  0.19924661  0.21259165  0.27557734     0.38400
H138        H  0.30779744  0.26847078  0.26657359     0.34900
H139        H  0.20841113  0.38118494  0.20178968     0.26600
H140        H  0.30800041  0.23882527  0.18656155     0.32600
H141        H  0.31987299  0.22034382  0.24346508     0.38500
H142        H  0.15270101  0.34048909  0.27732837     0.32900
H143        H  0.13633416  0.29936951  0.31338074     0.31800
H144        H  0.17232273  0.21354673  0.32373882     0.33500
H145        H  0.23158767  0.18851436  0.31547119     0.32500
H146        H  0.15276997  0.31677432  0.20577441     0.36500
H147        H  0.15999196  0.26431451  0.17438584     0.29200
H148        H  0.31270448  0.33889196  0.33217358     0.33400
H149        H  0.31384479  0.19953087  0.30453422     0.36300
H150        H  0.15032538  0.29302835  0.34497503     0.28900
H151        H  0.16069558  0.22955156  0.17227025     0.41800
H152        H  0.30521128  0.32498957  0.17094427     0.31800
H153        H  0.23766590  0.36279788  0.19605008     0.39400
H154        H  0.25525668  0.20634485  0.33452681     0.31300
H155        H  0.32113147  0.26748698  0.17163847     0.31400
H156        H  0.31953225  0.30475219  0.33273081     0.31600
C157        C  0.19432434  0.05228492  0.19695405     0.03700
C158        C  0.20839428  0.02642868  0.20708905    -0.12400
C159        C  0.19597240  0.99850259  0.19994254     0.01200
C160        C  0.16939920  0.99655074  0.18254275    -0.11000
C161        C  0.15570443  0.02220970  0.17145093     0.03700
C162        C  0.16831332  0.04986910  0.17894549    -0.10400
H163        H  0.22874292  0.02802299  0.22066934     0.09300
H164        H  0.15972867  0.97500583  0.17719697     0.06800
H165        H  0.15774685  0.06976431  0.17071422     0.06700
Zr166      Zr  0.27072089  0.74167444  0.27688156     2.17500
O167        O  0.30608197  0.70102604  0.28304134    -0.50700
O168        O  0.26801162  0.74019360  0.33115560    -0.73900
O169        O  0.32212170  0.75812767  0.28435626    -0.80700
O170        O  0.21046450  0.68317398  0.25567869    -0.82500
O171        O  0.32780397  0.80683955  0.27322518    -0.78100
O172        O  0.25833114  0.68971595  0.27364424    -0.89700
O173        O  0.23058786  0.77053884  0.34665640    -0.75700
O174        O  0.26347160  0.79137567  0.29287377    -0.85200
O175        O  0.21823414  0.74443348  0.28770557    -0.84900
O176        O  0.28763738  0.77127928  0.23549722    -0.71600
O177        O  0.24532724  0.72819478  0.23116205    -0.83800
Zr178      Zr  0.20095833  0.81279911  0.21642659     2.26400
Zr179      Zr  0.27912466  0.82153629  0.25133477     2.06300
Zr180      Zr  0.19245757  0.73244236  0.24168482     2.10000
Zr181      Zr  0.21070442  0.79435341  0.30273168     1.78800
O182        O  0.17634636  0.69794516  0.20230096    -0.92600
O183        O  0.22695910  0.83457063  0.33605220    -0.40400
O184        O  0.18423237  0.78254495  0.25724440    -0.77000
O185        O  0.22617137  0.82570219  0.26264360    -0.95700
O186        O  0.25335068  0.80938564  0.20518313    -0.89000
O187        O  0.20780842  0.76287244  0.20041792    -0.91800
C188        C  0.25152783  0.75188045  0.35148151     1.01900
C189        C  0.23559554  0.67344266  0.26626215     1.14800
C190        C  0.33798679  0.78181000  0.28213186     1.05600
O191        O  0.29554424  0.85843031  0.28821567    -0.94000
O192        O  0.26256758  0.87140550  0.23710999    -0.89700
O193        O  0.21533724  0.86488635  0.21764772    -0.82900
C194        C  0.23775183  0.88127481  0.22592892     1.12300
O195        O  0.30256377  0.72611171  0.18104132    -0.96000
Zr196      Zr  0.26045462  0.75903453  0.19050121     1.88900
O197        O  0.20499896  0.81427245  0.16221263    -0.72600
O198        O  0.31634351  0.83670401  0.21415830    -0.51900
O199        O  0.30233233  0.77989302  0.16203701    -0.96600
O200        O  0.24643470  0.71409740  0.16305147    -0.53800
O201        O  0.23826478  0.77986946  0.14598241    -0.73100
C202        C  0.21908550  0.80033059  0.14149089     0.99200
O203        O  0.15901984  0.84711618  0.21095477    -0.62000
O204        O  0.15587011  0.71266885  0.27718758    -0.56800
O205        O  0.14873443  0.79751373  0.21071456    -0.93400
O206        O  0.14289144  0.74928714  0.22411118    -0.91900
O207        O  0.16716301  0.77273717  0.32802959    -0.92200
O208        O  0.17000380  0.82952032  0.30967659    -0.91000
C209        C  0.13277409  0.77401529  0.21430806     1.18000
H210        H  0.21246655  0.73073071  0.30328888     0.34000
H211        H  0.22136601  0.84551507  0.26903707     0.44800
H212        H  0.19575521  0.75825742  0.18283194     0.38400
H213        H  0.30874442  0.76824301  0.23118652     0.34900
H214        H  0.24615268  0.82780723  0.34507770     0.26600
H215        H  0.32418821  0.85602974  0.22155305     0.32600
H216        H  0.30098652  0.80152165  0.16522715     0.38500
H217        H  0.16791598  0.78117058  0.34860259     0.32900
H218        H  0.14520802  0.73024332  0.28497482     0.31800
H219        H  0.16863075  0.71041036  0.18584061     0.33500
H220        H  0.23898751  0.72091928  0.14335483     0.32500
H221        H  0.16134430  0.83211425  0.28933863     0.36500
H222        H  0.15957887  0.86014556  0.22892942     0.29200
H223        H  0.31687607  0.70486074  0.30223321     0.33400
H224        H  0.30207915  0.71207670  0.19798451     0.36300
H225        H  0.14064193  0.70214623  0.26457683     0.28900
H226        H  0.16407279  0.86007927  0.19382319     0.41800
H227        H  0.31258926  0.86901625  0.27854417     0.31800
H228        H  0.23315498  0.85081421  0.32255152     0.39400
H229        H  0.22822404  0.70642448  0.17333016     0.31300
H230        H  0.33346249  0.82300261  0.21667163     0.31400
H231        H  0.32151775  0.70354712  0.26722386     0.31600
Zr232      Zr  0.77432442  0.24812305  0.22676648     2.17500
O233        O  0.81132872  0.23666405  0.18793317    -0.50700
O234        O  0.76993036  0.19443639  0.22516158    -0.73900
O235        O  0.82540388  0.24338703  0.24562813    -0.80700
O236        O  0.71514666  0.26711506  0.16678879    -0.82500
O237        O  0.82943083  0.25701193  0.29471584    -0.78100
O238        O  0.76372023  0.25262424  0.17363054    -0.89700
O239        O  0.73362105  0.17982248  0.25783641    -0.75700
O240        O  0.76614179  0.23490630  0.27764108    -0.85200
O241        O  0.72172641  0.23672279  0.22966624    -0.84900
O242        O  0.79016078  0.29084170  0.25569160    -0.71600
O243        O  0.74892612  0.29215602  0.21183189    -0.83800
Zr244      Zr  0.70295575  0.31137108  0.29623463     2.26400
Zr245      Zr  0.78031360  0.27772366  0.30706660     2.06300
Zr246      Zr  0.69605141  0.28120190  0.21632831     2.10000
Zr247      Zr  0.71342116  0.22432074  0.28071432     1.78800
O248        O  0.68113803  0.31894719  0.18070253    -0.92600
O249        O  0.73110255  0.19428463  0.32232899    -0.40400
O250        O  0.68688061  0.26853530  0.26767922    -0.77000
O251        O  0.72742123  0.26641738  0.31086642    -0.95700
O252        O  0.75541575  0.32235491  0.29279653    -0.89000
O253        O  0.71072011  0.32407909  0.24521285    -0.91800
C254        C  0.75389873  0.17456676  0.23813829     1.01900
C255        C  0.74090079  0.25841308  0.15689821     1.14800
C256        C  0.84041412  0.24701576  0.27005121     1.05600
O257        O  0.78939143  0.24037405  0.34502757    -0.94000
O258        O  0.76369521  0.29664342  0.35603883    -0.89700
O259        O  0.71618972  0.31403432  0.34875769    -0.82900
C260        C  0.73880742  0.30779978  0.36551363     1.12300
O261        O  0.80412620  0.34135300  0.20547233    -0.96000
Zr262      Zr  0.76345900  0.33430171  0.24143059     1.88900
O263        O  0.70879121  0.36530683  0.29714219    -0.72600
O264        O  0.82033594  0.31142644  0.32400548    -0.51900
O265        O  0.80671483  0.36173806  0.26171841    -0.96600
O266        O  0.74710612  0.36141958  0.19726282    -0.53800
O267        O  0.74386996  0.37937874  0.26292604    -0.73100
C268        C  0.72437771  0.38506997  0.28325948     0.99200
O269        O  0.66569007  0.31582432  0.33625003    -0.62000
O270        O  0.65997986  0.24461714  0.19691264    -0.56800
O271        O  0.65174093  0.31855705  0.27834493    -0.93400
O272        O  0.64608041  0.29822316  0.23176058    -0.91900
O273        O  0.66869819  0.19915326  0.26040261    -0.92200
O274        O  0.67419287  0.21588922  0.31793140    -0.91000
C275        C  0.63591420  0.31160295  0.25514799     1.18000
H276        H  0.71599725  0.22075289  0.21619951     0.34000
H277        H  0.72236910  0.26133949  0.33125349     0.44800
H278        H  0.69869326  0.34093788  0.23977543     0.38400
H279        H  0.81133871  0.29539565  0.25292211     0.34900
H280        H  0.72099415  0.17481440  0.31937261     0.26600
H281        H  0.80970598  0.32941273  0.33078553     0.32600
H282        H  0.80366981  0.36182605  0.28371820     0.38500
H283        H  0.67575620  0.17982142  0.25276732     0.32900
H284        H  0.64967368  0.23684729  0.21493593     0.31800
H285        H  0.66707948  0.30862638  0.16667363     0.33500
H286        H  0.72527646  0.36483466  0.20025979     0.32500
H287        H  0.66472587  0.23545746  0.32070682     0.36500
H288        H  0.65548632  0.33494642  0.33307292     0.29200
H289        H  0.82149355  0.21834061  0.19436545     0.33400
H290        H  0.80898564  0.32108542  0.19861880     0.36300
H291        H  0.64436201  0.25628122  0.18648270     0.28900
H292        H  0.65007806  0.30042800  0.33213947     0.41800
H293        H  0.80625127  0.24855351  0.35733547     0.31800
H294        H  0.75265917  0.19053986  0.31794710     0.39400
H295        H  0.74778456  0.34680339  0.18062005     0.31300
H296        H  0.82813593  0.30251688  0.34269720     0.31400
H297        H  0.82705281  0.25239096  0.18922972     0.31600
Zr298      Zr  0.69921841  0.74444847  0.28498805     2.17500
O299        O  0.65826247  0.70807607  0.28965931    -0.50700
O300        O  0.69760874  0.74909539  0.33943834    -0.73900
O301        O  0.71583362  0.69359121  0.29003311    -0.80700
O302        O  0.64021402  0.80486754  0.26945102    -0.82500
O303        O  0.76349371  0.68841457  0.27190878    -0.78100
O304        O  0.64653984  0.75759385  0.28513061    -0.89700
O305        O  0.72811825  0.78715276  0.35476918    -0.75700
O306        O  0.75089194  0.75053802  0.29871124    -0.85200
O307        O  0.70452023  0.79536973  0.29801632    -0.84900
O308        O  0.72692349  0.73015673  0.24099161    -0.71600
O309        O  0.68411477  0.77143289  0.24134324    -0.83800
Zr310      Zr  0.77078233  0.81547142  0.22443171     2.26400
Zr311      Zr  0.77914571  0.73753724  0.25472213     2.06300
Zr312      Zr  0.69054552  0.82254893  0.25442333     2.10000
Zr313      Zr  0.75648890  0.80160838  0.31116474     1.78800
O314        O  0.65561179  0.83971005  0.21610356    -0.92600
O315        O  0.79314728  0.77692832  0.34313566    -0.40400
O316        O  0.74269518  0.82961407  0.26796176    -0.77000
O317        O  0.78602343  0.78873549  0.26842153    -0.95700
O318        O  0.76510842  0.76474501  0.21082353    -0.89000
O319        O  0.71897432  0.80967595  0.21053624    -0.91800
C320        C  0.70848064  0.76677890  0.35951019     1.01900
C321        C  0.63008400  0.78000670  0.27940544     1.14800
C322        C  0.73907116  0.67811265  0.28359442     1.05600
O323        O  0.81448556  0.72126274  0.29315214    -0.94000
O324        O  0.82913224  0.75388561  0.23717982    -0.89700
O325        O  0.82347505  0.80173722  0.22324266    -0.82900
C326        C  0.83960034  0.77885240  0.22782789     1.12300
O327        O  0.67336847  0.72129931  0.19127121    -0.96000
Zr328      Zr  0.71305307  0.75857458  0.19810053     1.88900
O329        O  0.77117134  0.81276209  0.16988443    -0.72600
O330        O  0.79553512  0.70189341  0.21703634    -0.51900
O331        O  0.73078408  0.71662441  0.16874391    -0.96600
O332        O  0.67042964  0.77572598  0.16838449    -0.53800
O333        O  0.73699430  0.77830311  0.15381778    -0.73100
C334        C  0.75775218  0.79765775  0.14919096     0.99200
O335        O  0.80525055  0.85669826  0.21392667    -0.62000
O336        O  0.67316347  0.85767231  0.29217516    -0.56800
O337        O  0.75698193  0.86701786  0.22761292    -0.93400
O338        O  0.70779158  0.87211003  0.24111208    -0.91900
O339        O  0.74570728  0.84770987  0.33734991    -0.92200
O340        O  0.79988194  0.83395116  0.32093267    -0.91000
C341        C  0.73359986  0.88261614  0.23309599     1.18000
H342        H  0.69113818  0.80077119  0.31415755     0.34000
H343        H  0.80670599  0.79284845  0.27418191     0.44800
H344        H  0.71394629  0.82233206  0.19390548     0.38400
H345        H  0.72299129  0.70968700  0.23579971     0.34900
H346        H  0.78437178  0.75710907  0.34714735     0.26600
H347        H  0.80357134  0.68502226  0.22852262     0.32600
H348        H  0.71992435  0.71797509  0.14931861     0.38500
H349        H  0.72393522  0.85101297  0.33359553     0.32900
H350        H  0.65499030  0.86667866  0.28317757     0.31800
H351        H  0.64180715  0.85313845  0.22692294     0.33500
H352        H  0.67432563  0.76826224  0.14782566     0.32500
H353        H  0.80445501  0.84288388  0.30122915     0.36500
H354        H  0.81948584  0.85788526  0.23112630     0.29200
H355        H  0.66205169  0.69731868  0.30856706     0.33400
H356        H  0.67098227  0.71220675  0.21128054     0.36300
H357        H  0.66527493  0.84551699  0.30882348     0.28900
H358        H  0.81762683  0.85050407  0.19655607     0.41800
H359        H  0.83174730  0.73535593  0.29233622     0.31800
H360        H  0.81063073  0.77307500  0.32993697     0.39400
H361        H  0.67321065  0.79741703  0.16704325     0.31300
H362        H  0.77656676  0.69422426  0.20783266     0.31400
H363        H  0.66121427  0.69337188  0.27337024     0.31600
C364        C  0.20237906  0.22002434  0.03408982     0.03700
C365        C  0.17860833  0.19916132  0.03426515    -0.12400
C366        C  0.16304397  0.19157845  0.00760660     0.01200
C367        C  0.17295235  0.20437348  0.98053780    -0.11000
C368        C  0.19810178  0.22374006  0.98001118     0.03700
C369        C  0.21232641  0.23190597  0.00696969    -0.10400
H370        H  0.17173299  0.18957656  0.05540848     0.09300
H371        H  0.16111533  0.19935065  0.95974505     0.06800
H372        H  0.23064626  0.24804287  0.00692445     0.06700
Zr373      Zr  0.19860208  0.24719602  0.79065172     2.17500
O374        O  0.16257588  0.23668658  0.83072086    -0.50700
O375        O  0.20665242  0.19432011  0.79128355    -0.73900
O376        O  0.14793987  0.23582582  0.77327702    -0.80700
O377        O  0.25666406  0.27138392  0.85126702    -0.82500
O378        O  0.14082462  0.25388221  0.72625598    -0.78100
O379        O  0.21031814  0.25032204  0.84349209    -0.89700
O380        O  0.24150217  0.18217475  0.75622735    -0.75700
O381        O  0.20629060  0.23488569  0.73927291    -0.85200
O382        O  0.25154371  0.23975637  0.78679991    -0.84900
O383        O  0.17953889  0.28845295  0.76287378    -0.71600
O384        O  0.22156031  0.29298945  0.80637625    -0.83800
Zr385      Zr  0.26518769  0.31569956  0.72269408     2.26400
Zr386      Zr  0.18920680  0.27668688  0.71103593     2.06300
Zr387      Zr  0.27505146  0.28581122  0.80148149     2.10000
Zr388      Zr  0.25930412  0.22827680  0.73516507     1.78800
O389        O  0.29176381  0.32489183  0.83584069    -0.92600
O390        O  0.24017976  0.19855305  0.69315110    -0.40400
O391        O  0.28327192  0.27392659  0.74984591    -0.77000
O392        O  0.24278860  0.26953733  0.70625065    -0.95700
O393        O  0.21213953  0.32289821  0.72608464    -0.89000
O394        O  0.25710282  0.32769494  0.77410665    -0.91800
C395        C  0.22257295  0.17558311  0.77681705     1.01900
C396        C  0.23195517  0.25927040  0.86059351     1.14800
C397        C  0.13156954  0.24070663  0.75015406     1.05600
O398        O  0.17502821  0.23978039  0.67328019    -0.94000
O399        O  0.20675658  0.29450911  0.66181381    -0.89700
O400        O  0.25012342  0.32072176  0.67078363    -0.82900
C401        C  0.22952541  0.31038798  0.65328760     1.12300
O402        O  0.16279302  0.33756692  0.81402134    -0.96000
Zr403      Zr  0.20364051  0.33380263  0.77772667     1.88900
O404        O  0.26105235  0.36913551  0.72811825    -0.72600
O405        O  0.15120143  0.31143734  0.69410681    -0.51900
O406        O  0.15824725  0.35697711  0.75814237    -0.96600
O407        O  0.21756425  0.36423395  0.82111978    -0.53800
O408        O  0.21986254  0.37996721  0.75615628    -0.73100
C409        C  0.24246436  0.38733498  0.74001155     0.99200
O410        O  0.30676451  0.32611255  0.68825763    -0.62000
O411        O  0.31052261  0.25000224  0.82130564    -0.56800
O412        O  0.31811847  0.31788801  0.73553216    -0.93400
O413        O  0.32523190  0.30240252  0.78344222    -0.91900
O414        O  0.30477052  0.20425228  0.75343962    -0.92200
O415        O  0.29927233  0.22257528  0.69826274    -0.91000
C416        C  0.33500884  0.31234027  0.75813148     1.18000
H417        H  0.25812296  0.22405859  0.79976499     0.34000
H418        H  0.24818160  0.26531055  0.68572917     0.44800
H419        H  0.26809970  0.34532698  0.78021729     0.38400
H420        H  0.15820247  0.29101518  0.76624914     0.34900
H421        H  0.24371951  0.21060894  0.67503506     0.26600
H422        H  0.14107940  0.30137381  0.67692915     0.32600
H423        H  0.16163253  0.35841317  0.73625389     0.38500
H424        H  0.29969477  0.19735736  0.77386382     0.32900
H425        H  0.32301514  0.24424638  0.80387330     0.31800
H426        H  0.30700891  0.31543251  0.84885112     0.33500
H427        H  0.23314416  0.37829368  0.81379748     0.32500
H428        H  0.29659996  0.23926686  0.68429206     0.36500
H429        H  0.30592931  0.31045099  0.67258233     0.29200
H430        H  0.15383725  0.21685047  0.82627236     0.33400
H431        H  0.15174205  0.31843200  0.81265480     0.36300
H432        H  0.32438086  0.26175119  0.83434543     0.28900
H433        H  0.30161065  0.34468067  0.67785920     0.41800
H434        H  0.15578968  0.24694028  0.66468382     0.31800
H435        H  0.25438292  0.18187448  0.69130893     0.39400
H436        H  0.22876904  0.35073134  0.83443523     0.31300
H437        H  0.13580089  0.31154929  0.71013923     0.31400
H438        H  0.14572793  0.25068407  0.82806839     0.31600
Zr439      Zr  0.19119530  0.81192559  0.78115397     2.17500
O440        O  0.14905758  0.81620194  0.81614144    -0.50700
O441        O  0.19411282  0.86557319  0.78110005    -0.73900
O442        O  0.20614570  0.81567494  0.83333749    -0.80700
O443        O  0.13304769  0.79620073  0.71823210    -0.82500
O444        O  0.25447671  0.80035120  0.83970371    -0.78100
O445        O  0.13898977  0.81279722  0.76628395    -0.89700
O446        O  0.23193480  0.88082718  0.75033861    -0.75700
O447        O  0.24299916  0.82511117  0.77647492    -0.85200
O448        O  0.19728029  0.82517490  0.72987440    -0.84900
O449        O  0.21741858  0.76841817  0.79637276    -0.71600
O450        O  0.17592172  0.76907188  0.75269149    -0.83800
Zr451      Zr  0.26271944  0.75170081  0.71109919     2.26400
Zr452      Zr  0.26968799  0.78160389  0.79071636     2.06300
Zr453      Zr  0.18327888  0.78191936  0.70127433     2.10000
Zr454      Zr  0.24958587  0.83718337  0.72491701     1.78800
O455        O  0.14740285  0.74508174  0.68204777    -0.92600
O456        O  0.29430108  0.86493620  0.74153922    -0.40400
O457        O  0.23563224  0.79459920  0.69567107    -0.77000
O458        O  0.27790668  0.79496124  0.73917162    -0.95700
O459        O  0.25606165  0.73811912  0.76215235    -0.89000
O460        O  0.21064286  0.73867938  0.71518928    -0.91800
C461        C  0.21081570  0.88561611  0.76917778     1.01900
C462        C  0.12289302  0.80648980  0.74315233     1.14800
C463        C  0.22945271  0.81060926  0.84952725     1.05600
O464        O  0.30770917  0.81662496  0.80939154    -0.94000
O465        O  0.31954011  0.76493273  0.77691348    -0.89700
O466        O  0.31446941  0.74871042  0.72868605    -0.82900
C467        C  0.33009237  0.75453731  0.75234149     1.12300
O468        O  0.16195831  0.71932802  0.80130941    -0.96000
Zr469      Zr  0.20365263  0.72621771  0.76648415     1.88900
O470        O  0.26130729  0.69817513  0.71137950    -0.72600
O471        O  0.28232014  0.74352595  0.82690781    -0.51900
O472        O  0.21981150  0.70002864  0.81123862    -0.96600
O473        O  0.16162056  0.69582228  0.74787608    -0.53800
O474        O  0.22615546  0.68254664  0.74487574    -0.73100
C475        C  0.24658824  0.67794313  0.72519843     0.99200
O476        O  0.29926258  0.74514730  0.67073058    -0.62000
O477        O  0.16661805  0.82013303  0.66691252    -0.56800
O478        O  0.24925403  0.75103683  0.65850386    -0.93400
O479        O  0.20053312  0.76536368  0.65193761    -0.91900
O480        O  0.22989139  0.86741784  0.68435710    -0.92200
O481        O  0.28566731  0.84319091  0.68423907    -0.91000
C482        C  0.22595058  0.75581918  0.64213443     1.18000
H483        H  0.18460444  0.84167257  0.72472039     0.34000
H484        H  0.29879143  0.80015362  0.73570566     0.44800
H485        H  0.20548629  0.72234006  0.70195885     0.38400
H486        H  0.21301285  0.76338008  0.81690468     0.34900
H487        H  0.29260408  0.86567830  0.76367848     0.26600
H488        H  0.29488933  0.75382685  0.84227758     0.32600
H489        H  0.23934598  0.69107879  0.80568544     0.38500
H490        H  0.21317476  0.87882098  0.69331259     0.32900
H491        H  0.18482432  0.82526889  0.65511279     0.31800
H492        H  0.13382716  0.75621157  0.66861044     0.33500
H493        H  0.16676397  0.67529034  0.75335990     0.32500
H494        H  0.29172953  0.82276054  0.67910764     0.36500
H495        H  0.31381511  0.76186652  0.67262139     0.29200
H496        H  0.15304970  0.83419233  0.82841628     0.33400
H497        H  0.15923189  0.73903389  0.81070033     0.36300
H498        H  0.15308151  0.80967993  0.65248016     0.28900
H499        H  0.31092531  0.72727790  0.67580261     0.41800
H500        H  0.31908979  0.80559671  0.82479792     0.31800
H501        H  0.31165741  0.85180115  0.73780397     0.39400
H502        H  0.16329147  0.69627435  0.72574836     0.31300
H503        H  0.26307562  0.73900937  0.83726526     0.31400
H504        H  0.15088931  0.79941387  0.83017597     0.31600
Zr505      Zr  0.76737813  0.25467678  0.79601726     2.17500
O506        O  0.80725581  0.25175057  0.83395506    -0.50700
O507        O  0.76592369  0.20101102  0.79062460    -0.73900
O508        O  0.74899939  0.24431764  0.84592596    -0.80700
O509        O  0.82800996  0.27127327  0.73690980    -0.82500
O510        O  0.70401031  0.26716894  0.85317569    -0.78100
O511        O  0.82041029  0.25218547  0.78341290    -0.89700
O512        O  0.72906606  0.18763858  0.75740678    -0.75700
O513        O  0.71511743  0.24345870  0.78926050    -0.85200
O514        O  0.76234750  0.24383181  0.74392214    -0.84900
O515        O  0.74132507  0.29833407  0.81240378    -0.71600
O516        O  0.78421909  0.29867307  0.77105050    -0.83800
Zr517      Zr  0.69934216  0.31965575  0.72668920     2.26400
Zr518      Zr  0.68853120  0.28713204  0.80440588     2.06300
Zr519      Zr  0.77850775  0.28783488  0.71866172     2.10000
Zr520      Zr  0.70984487  0.23321099  0.73700015     1.78800
O521        O  0.81660571  0.32395044  0.70347527    -0.92600
O522        O  0.66468830  0.20696258  0.75394275    -0.40400
O523        O  0.72601308  0.27646392  0.71046056    -0.77000
O524        O  0.68206718  0.27575941  0.75187384    -0.95700
O525        O  0.70436443  0.33118638  0.77864046    -0.89000
O526        O  0.75148603  0.33131437  0.73351173    -0.91800
C527        C  0.75013705  0.18160302  0.77610128     1.01900
C528        C  0.83745997  0.25947662  0.76141201     1.14800
C529        C  0.72669903  0.25201191  0.86230448     1.05600
O530        O  0.65013129  0.25099964  0.81891227    -0.94000
O531        O  0.63889803  0.30575552  0.78815565    -0.89700
O532        O  0.64675052  0.32328796  0.74110370    -0.82900
C533        C  0.62960548  0.31722979  0.76340548     1.12300
O534        O  0.79574564  0.34912363  0.82391096    -0.96000
Zr535      Zr  0.75676184  0.34182076  0.78569322     1.88900
O536        O  0.69959355  0.37295739  0.73246509    -0.72600
O537        O  0.67398018  0.32258046  0.84303013    -0.51900
O538        O  0.73788196  0.36714667  0.83015768    -0.96600
O539        O  0.80038938  0.37081794  0.76922467    -0.53800
O540        O  0.73538995  0.38716060  0.76638861    -0.73100
C541        C  0.71418429  0.39264655  0.74763258     0.99200
O542        O  0.66565032  0.32834699  0.68418963    -0.62000
O543        O  0.79534053  0.25090882  0.68248343    -0.56800
O544        O  0.71548515  0.32460833  0.67509905    -0.93400
O545        O  0.76287377  0.30629019  0.66944447    -0.91900
O546        O  0.72574297  0.20274649  0.69476181    -0.92200
O547        O  0.67260508  0.23038537  0.69663200    -0.91000
C548        C  0.73874845  0.31842343  0.65930791     1.18000
H549        H  0.77474400  0.22732674  0.73807609     0.34000
H550        H  0.66121260  0.27111085  0.74723451     0.44800
H551        H  0.75729478  0.34806148  0.72136744     0.38400
H552        H  0.74533299  0.30205249  0.83343202     0.34900
H553        H  0.66800226  0.18603506  0.74827291     0.26600
H554        H  0.66547490  0.33946563  0.83191893     0.32600
H555        H  0.71854699  0.37600890  0.82375743     0.38500
H556        H  0.74724877  0.20809278  0.69163608     0.32900
H557        H  0.77889267  0.24945411  0.66737980     0.31800
H558        H  0.82632770  0.31497895  0.68567693     0.33500
H559        H  0.79604433  0.39139317  0.77548272     0.32500
H560        H  0.67301584  0.25030643  0.68753810     0.36500
H561        H  0.65108231  0.31158573  0.68383554     0.29200
H562        H  0.80496248  0.23208084  0.84337320     0.33400
H563        H  0.79452310  0.33121647  0.83652151     0.36300
H564        H  0.81230518  0.26057227  0.67177770     0.28900
H565        H  0.65360109  0.34593152  0.68955606     0.41800
H566        H  0.64563229  0.25563925  0.84017389     0.31800
H567        H  0.66614148  0.20727465  0.77611998     0.39400
H568        H  0.79908006  0.37110082  0.74705094     0.31300
H569        H  0.65634050  0.31329035  0.85299878     0.31400
H570        H  0.80201173  0.26624800  0.84982267     0.31600
Zr571      Zr  0.75923181  0.82180366  0.78800241     2.17500
O572        O  0.76490744  0.86184495  0.82477802    -0.50700
O573        O  0.81392487  0.82248564  0.78523827    -0.73900
O574        O  0.76401721  0.80491366  0.83927908    -0.80700
O575        O  0.74264205  0.87936229  0.72749393    -0.82500
O576        O  0.74828121  0.75712676  0.84410779    -0.78100
O577        O  0.75902948  0.87359219  0.77558338    -0.89700
O578        O  0.82917313  0.79083903  0.74862735    -0.75700
O579        O  0.77305960  0.77162341  0.78090785    -0.85200
O580        O  0.77161453  0.81761818  0.73625501    -0.84900
O581        O  0.71551943  0.79395897  0.80309351    -0.71600
O582        O  0.71464425  0.83595247  0.76113269    -0.83800
Zr583      Zr  0.69701757  0.75082117  0.71682163     2.26400
Zr584      Zr  0.72907394  0.74327843  0.79483709     2.06300
Zr585      Zr  0.72676579  0.83028178  0.70921164     2.10000
Zr586      Zr  0.78436437  0.76720177  0.72878042     1.78800
O587        O  0.68844393  0.86480154  0.69249760    -0.92600
O588        O  0.81543781  0.72625036  0.74544435    -0.40400
O589        O  0.73996137  0.77943599  0.70111432    -0.77000
O590        O  0.74216365  0.73733452  0.74300861    -0.95700
O591        O  0.68413609  0.75606160  0.76811841    -0.89000
O592        O  0.68304940  0.80140989  0.72299556    -0.91800
C593        C  0.83423253  0.81014735  0.76918075     1.01900
C594        C  0.75284812  0.88940944  0.75271543     1.14800
C595        C  0.75878842  0.78161203  0.85469068     1.05600
O596        O  0.76477991  0.70612856  0.81132470    -0.94000
O597        O  0.71243533  0.69400401  0.77916880    -0.89700
O598        O  0.69740699  0.69890737  0.73061984    -0.82900
C599        C  0.70299578  0.68338221  0.75397793     1.12300
O600        O  0.66554619  0.84583009  0.81229654    -0.96000
Zr601      Zr  0.67162674  0.80675102  0.77497543     1.88900
O602        O  0.64252899  0.75040983  0.71971249    -0.72600
O603        O  0.68855313  0.72967589  0.82913312    -0.51900
O604        O  0.64750569  0.78666305  0.81952324    -0.96600
O605        O  0.63869446  0.84709171  0.76033807    -0.53800
O606        O  0.62668425  0.78253287  0.75558536    -0.73100
C607        C  0.62202022  0.76261688  0.73551529     0.99200
O608        O  0.68403273  0.71106168  0.68143098    -0.62000
O609        O  0.76353920  0.84861295  0.67299051    -0.56800
O610        O  0.69885450  0.76523041  0.66481225    -0.93400
O611        O  0.71083269  0.81390121  0.65937303    -0.91900
O612        O  0.80892675  0.78720509  0.68441248    -0.92200
O613        O  0.79375060  0.72964843  0.69066126    -0.91000
C614        C  0.70303951  0.78837477  0.64895197     1.18000
H615        H  0.78810239  0.83075942  0.73108146     0.34000
H616        H  0.74822512  0.71731196  0.73876021     0.44800
H617        H  0.66593083  0.80618835  0.71045355     0.38400
H618        H  0.71060845  0.79748738  0.82387254     0.34900
H619        H  0.83635223  0.73183369  0.73978357     0.26600
H620        H  0.69569066  0.71147794  0.83898972     0.32600
H621        H  0.62614532  0.79278952  0.81793119     0.38500
H622        H  0.79219895  0.79142195  0.67028613     0.32900
H623        H  0.75425726  0.86662921  0.66466729     0.31800
H624        H  0.68346133  0.87657446  0.71060268     0.33500
H625        H  0.61788359  0.83980617  0.76420609     0.32500
H626        H  0.77337538  0.72183287  0.68550130     0.36500
H627        H  0.66728377  0.71847362  0.66882292     0.29200
H628        H  0.78345162  0.85759206  0.83644094     0.33400
H629        H  0.68642067  0.85274567  0.81679119     0.36300
H630        H  0.78091649  0.85610002  0.68501600     0.28900
H631        H  0.70151328  0.70922499  0.66775057     0.41800
H632        H  0.75498305  0.69666088  0.82879220     0.31800
H633        H  0.81527442  0.72762570  0.76763028     0.39400
H634        H  0.64016084  0.84790822  0.73820737     0.31300
H635        H  0.68919123  0.74495269  0.84517713     0.31400
H636        H  0.74800486  0.85936444  0.83907719     0.31600
C637        C  0.50157944  0.71903110  0.71134106     0.03700
C638        C  0.47634288  0.72887841  0.72718037    -0.12400
C639        C  0.44748723  0.71882902  0.71890221     0.01200
C640        C  0.44378406  0.69899496  0.69484027    -0.11000
C641        C  0.46899916  0.68882501  0.67918676     0.03700
C642        C  0.49790572  0.69883495  0.68761562    -0.10400
H643        H  0.47905716  0.74496120  0.74519046     0.09300
H644        H  0.42124674  0.69219187  0.68778662     0.06800
H645        H  0.51753143  0.69132414  0.67534493     0.06700
C646        C  0.27467266  0.50401385  0.70293296     0.03700
C647        C  0.29701451  0.50086502  0.68099106    -0.12400
C648        C  0.30914239  0.52574528  0.66688439     0.01200
C649        C  0.29885092  0.55383689  0.67465720    -0.11000
C650        C  0.27670009  0.55724939  0.69669536     0.03700
C651        C  0.26436551  0.53224516  0.71079040    -0.10400
H652        H  0.30498830  0.47903621  0.67493748     0.09300
H653        H  0.30845373  0.57316910  0.66384055     0.06800
H654        H  0.24741124  0.53476009  0.72807544     0.06700
C655        C  0.51016366  0.35241152  0.72508613     0.03700
C656        C  0.50985931  0.37114048  0.69994839    -0.12400
C657        C  0.48307943  0.37544488  0.68304541     0.01200
C658        C  0.45629729  0.36168257  0.69360281    -0.11000
C659        C  0.45570233  0.34639303  0.72100071     0.03700
C660        C  0.48285656  0.34110714  0.73617913    -0.10400
H661        H  0.53087028  0.38167642  0.69348369     0.09300
H662        H  0.43554731  0.36284254  0.68074874     0.06800
H663        H  0.48284585  0.32737968  0.75601599     0.06700
C664        C  0.67255617  0.51006750  0.72042905     0.03700
C665        C  0.65159054  0.51054787  0.69672286    -0.12400
C666        C  0.64109649  0.53744535  0.68548032     0.01200
C667        C  0.65125557  0.56397785  0.69883443    -0.11000
C668        C  0.67160865  0.56366477  0.72311086     0.03700
C669        C  0.68239770  0.53668259  0.73378066    -0.10400
H670        H  0.64391956  0.48989893  0.68658883     0.09300
H671        H  0.64387000  0.58495048  0.68992034     0.06800
H672        H  0.69879211  0.53642259  0.75192884     0.06700
C673        C  0.51438107  0.34827651  0.28131646     0.03700
C674        C  0.48590257  0.34001604  0.26932871    -0.12400
C675        C  0.45923613  0.35087340  0.28242954     0.01200
C676        C  0.46120148  0.36975527  0.30742483    -0.11000
C677        C  0.48935554  0.37799136  0.31951779     0.03700
C678        C  0.51574077  0.36713711  0.30650557    -0.10400
H679        H  0.48447958  0.32516715  0.25016715     0.09300
H680        H  0.44068889  0.37782687  0.31773237     0.06800
H681        H  0.53750900  0.37361378  0.31589541     0.06700
C682        C  0.69647255  0.50661422  0.31540700     0.03700
C683        C  0.71091308  0.53238800  0.30473693    -0.12400
C684        C  0.70102762  0.56046134  0.31406910     0.01200
C685        C  0.67670941  0.56264774  0.33407900    -0.11000
C686        C  0.66217984  0.53712681  0.34467684     0.03700
C687        C  0.67200611  0.50929266  0.33512477    -0.10400
H688        H  0.72990587  0.53062382  0.28958562     0.09300
H689        H  0.66910981  0.58422691  0.34141243     0.06800
H690        H  0.66070464  0.48956034  0.34333620     0.06700
C691        C  0.51117730  0.74701211  0.32045265     0.03700
C692        C  0.48382689  0.75997060  0.31218149    -0.12400
C693        C  0.45637038  0.74701145  0.32070509     0.01200
C694        C  0.45621028  0.72098099  0.33756991    -0.11000
C695        C  0.48337381  0.70842455  0.34745723     0.03700
C696        C  0.51092965  0.72154708  0.33855046    -0.10400
H697        H  0.48387575  0.77923257  0.29783978     0.09300
H698        H  0.43477842  0.71055870  0.34311021     0.06800
H699        H  0.53215099  0.71185505  0.34536725     0.06700
C700        C  0.26993338  0.50560944  0.31468721     0.03700
C701        C  0.25733595  0.53107770  0.30221731    -0.12400
C702        C  0.27190876  0.55855732  0.30588567     0.01200
C703        C  0.29952041  0.56037623  0.32165321    -0.11000
C704        C  0.31130060  0.53552856  0.33638623     0.03700
C705        C  0.29571744  0.50834406  0.33301257    -0.10400
H706        H  0.23689762  0.52936143  0.28877284     0.09300
H707        H  0.31162347  0.58129957  0.32229981     0.06800
H708        H  0.30413438  0.48878385  0.34398455     0.06700
C709        C  0.66109541  0.74954732  0.47807246     0.03700
C710        C  0.63985139  0.72652907  0.48024845    -0.12400
C711        C  0.63535525  0.71179466  0.50759089     0.01200
C712        C  0.65023570  0.72325424  0.53330076    -0.11000
C713        C  0.66742833  0.74948986  0.53181916     0.03700
C714        C  0.67382308  0.76199542  0.50399864    -0.10400
H715        H  0.62842654  0.71909105  0.45999177     0.09300
H716        H  0.64858947  0.71206040  0.55461495     0.06800
H717        H  0.68965891  0.78038971  0.50243146     0.06700
C718        C  0.70379904  0.34473943  0.48401062     0.03700
C719        C  0.67910776  0.36397012  0.48262109    -0.12400
C720        C  0.66608800  0.37514391  0.50897221     0.01200
C721        C  0.67807278  0.36685254  0.53693969    -0.11000
C722        C  0.70293958  0.34766843  0.53857412     0.03700
C723        C  0.71567617  0.33672280  0.51196742    -0.10400
H724        H  0.66986666  0.37006193  0.46098427     0.09300
H725        H  0.66816444  0.37540993  0.55739264     0.06800
H726        H  0.73469365  0.32185349  0.51301623     0.06700
C727        C  0.26985134  0.71216685  0.47287622     0.03700
C728        C  0.29161904  0.69026703  0.47646534    -0.12400
C729        C  0.29928241  0.68005636  0.50498631     0.01200
C730        C  0.28431732  0.69140979  0.53020535    -0.11000
C731        C  0.26212641  0.71314917  0.52676493     0.03700
C732        C  0.25495351  0.72352172  0.49807283    -0.10400
H733        H  0.30337116  0.68177190  0.45695920     0.09300
H734        H  0.29043401  0.68393072  0.55245191     0.06800
H735        H  0.23862435  0.74102216  0.49548910     0.06700
C736        C  0.27314704  0.33102265  0.48028097     0.03700
C737        C  0.29917920  0.34891134  0.47888123    -0.12400
C738        C  0.31096337  0.36274401  0.50477547     0.01200
C739        C  0.29691018  0.35741746  0.53256628    -0.11000
C740        C  0.27132990  0.33867170  0.53422143     0.03700
C741        C  0.25936326  0.32584782  0.50796409    -0.10400
H742        H  0.30988748  0.35263767  0.45737296     0.09300
H743        H  0.30584705  0.36771580  0.55282742     0.06800
H744        H  0.23961133  0.31149215  0.50914468     0.06700
O745        O  0.89580969  0.98435609  0.99714876    -0.85900
O746        O  0.06696186  0.98568427  0.00531679    -0.86100
O747        O  0.98643421  0.95330795  0.94967130    -0.87700
O748        O  0.98112654  0.94482396  0.04709021    -0.86500
O749        O  0.97938463  0.97723587  0.08691613    -0.86100
O750        O  0.98675361  0.99207402  0.91743508    -0.87400
O751        O  0.03086369  0.94975916  0.99885329    -0.85900
O752        O  0.93251938  0.94893558  0.99537732    -0.85500
Zr753      Zr  0.98150709  0.97325048  0.00065228     2.84300
O754        O  0.01118504  0.00075461  0.03454451    -1.07500
O755        O  0.95089205  0.00472430  0.97245282    -1.08200
C756        C  0.90469463  0.95725546  0.99473465     1.07200
C757        C  0.05869137  0.95843447  0.00149457     1.07200
C758        C  0.98878145  0.96420177  0.92301614     1.10100
C759        C  0.98018918  0.95079034  0.07551205     1.07900
H760        H  0.02517593  0.99480621  0.96125496     0.33500
O761        O  0.01215955  0.00596570  0.97431163    -1.28400
H762        H  0.93704987  0.98673552  0.04324546     0.33100
O763        O  0.94996141  0.00032267  0.03250064    -1.30100
O764        O  0.06838452  0.08060740  0.00864294    -0.85900
O765        O  0.89634287  0.08157446  0.00824758    -0.87400
O766        O  0.02945219  0.03924725  0.92121854    -0.86000
O767        O  0.02883013  0.02525678  0.09238989    -0.86000
O768        O  0.92867023  0.02482226  0.08853436    -0.85700
O769        O  0.93324469  0.03253673  0.92085350    -0.85500
O770        O  0.98206620  0.12141508  0.96460570    -0.85900
O771        O  0.97685998  0.11299267  0.06364396    -0.85400
O772        O  0.98084513  0.08724963  0.92611310    -0.86400
O773        O  0.97733010  0.07348939  0.09527592    -0.85600
O774        O  0.06586470  0.03386382  0.95765286    -0.86000
O775        O  0.89562204  0.03449914  0.95535957    -0.85700
O776        O  0.89380612  0.02617782  0.05066263    -0.85400
O777        O  0.06600212  0.02960954  0.05688276    -0.85800
O778        O  0.03287764  0.11713249  0.01220728    -0.86100
O779        O  0.93288142  0.11813099  0.01116327    -0.87400
Zr780      Zr  0.04203551  0.03339221  0.00758109     2.83100
Zr781      Zr  0.92041475  0.03281608  0.00415207     2.83500
Zr782      Zr  0.98172136  0.03757298  0.94651252     2.84100
Zr783      Zr  0.97971345  0.02765942  0.06653120     2.83400
Zr784      Zr  0.98192161  0.09353714  0.01184735     2.84200
O785        O  0.95056295  0.06020132  0.03797047    -1.08000
O786        O  0.01223988  0.06556719  0.97951677    -1.07500
C787        C  0.06056314  0.10795845  0.01003204     1.07200
C788        C  0.90505053  0.10905006  0.00999804     1.09800
C789        C  0.05694663  0.03637307  0.93000051     1.07400
C790        C  0.05690883  0.02633534  0.08422554     1.07700
C791        C  0.90105979  0.02416892  0.07852727     1.07300
C792        C  0.90505155  0.03248018  0.92807911     1.06900
C793        C  0.98106220  0.11402496  0.93645021     1.07300
C794        C  0.97547066  0.10149195  0.09023889     1.06800
H795        H  0.93881254  0.07866790  0.96609863     0.33500
O796        O  0.95131142  0.06585054  0.97800684    -1.29100
H797        H  0.02378814  0.07210282  0.05418532     0.33500
O798        O  0.01133690  0.06084084  0.04025348    -1.30500
O799        O  0.47219562  0.61225530  0.55421462    -0.85900
O800        O  0.48606677  0.44394751  0.54980038    -0.86100
O801        O  0.43141054  0.52552325  0.58678563    -0.87700
O802        O  0.52907639  0.53075543  0.59090545    -0.86500
O803        O  0.56714926  0.53551338  0.55660986    -0.86100
O804        O  0.39680257  0.52046142  0.54896914    -0.87400
O805        O  0.48115768  0.47939812  0.58680544    -0.85900
O806        O  0.47503377  0.57608474  0.58961825    -0.85500
Zr807      Zr  0.48095870  0.52801920  0.56391280     2.84300
O808        O  0.51383593  0.49998657  0.53417536    -1.07500
O809        O  0.44954563  0.55618529  0.53353829    -1.08200
C810        C  0.47182821  0.60339680  0.58157066     1.07200
C811        C  0.48337188  0.45237005  0.57758959     1.07200
C812        C  0.40409210  0.52219493  0.57705630     1.10100
C813        C  0.55721922  0.53407248  0.58381730     1.07900
H814        H  0.44129140  0.48319720  0.54269057     0.33500
O815        O  0.45366131  0.49660616  0.53114153    -1.28400
H816        H  0.52188942  0.57360713  0.54995127     0.33100
O817        O  0.51071103  0.56073892  0.53639827    -1.30100
O818        O  0.48693655  0.44841280  0.44919780    -0.85900
O819        O  0.48142917  0.61550986  0.45849691    -0.87400
O820        O  0.40019198  0.47585018  0.49840983    -0.86000
O821        O  0.57108982  0.48570861  0.50751585    -0.86000
O822        O  0.56545260  0.58278970  0.50735669    -0.85700
O823        O  0.39440889  0.57060683  0.50630048    -0.85500
O824        O  0.43752273  0.53181774  0.41602142    -0.85900
O825        O  0.53610113  0.53746916  0.42165066    -0.85400
O826        O  0.39938864  0.52883700  0.45081033    -0.86400
O827        O  0.57094715  0.53390475  0.45938674    -0.85600
O828        O  0.43810130  0.44167783  0.49837514    -0.86000
O829        O  0.42769771  0.60961265  0.50526639    -0.85700
O830        O  0.52659262  0.61615088  0.51013467    -0.85400
O831        O  0.53713524  0.44779586  0.50042231    -0.85800
O832        O  0.48955147  0.48674497  0.41616797    -0.86100
O833        O  0.48358849  0.58156003  0.42031588    -0.87400
Zr834      Zr  0.48633746  0.46916741  0.50071695     2.83100
Zr835      Zr  0.47899068  0.58908824  0.50582785     2.83500
Zr836      Zr  0.42248043  0.52517242  0.50079356     2.84100
Zr837      Zr  0.54386840  0.53286025  0.50678809     2.83400
Zr838      Zr  0.48557968  0.53269616  0.44340357     2.84200
O839        O  0.51330832  0.56266364  0.47644420    -1.08000
O840        O  0.45565192  0.49875350  0.47023048    -1.07500
C841        C  0.48866002  0.45899729  0.42222030     1.07200
C842        C  0.48238886  0.60841552  0.43039069     1.09800
C843        C  0.40986504  0.44901232  0.49799261     1.07400
C844        C  0.56446082  0.45789422  0.50391360     1.07700
C845        C  0.55480405  0.60924411  0.50924317     1.07300
C846        C  0.40056415  0.59853978  0.50638328     1.06900
C847        C  0.40936577  0.53111441  0.42364674     1.07300
C848        C  0.56364493  0.53629469  0.43143554     1.06800
H849        H  0.43863602  0.57100210  0.46074129     0.33500
O850        O  0.45145106  0.55883001  0.47301378    -1.29100
H851        H  0.52987018  0.49170372  0.46090626     0.33500
O852        O  0.51615933  0.50268416  0.47347559    -1.30500
C853        C  0.33714425  0.38386564  0.50216735    -0.04700
C854        C  0.33495695  0.40864807  0.48311567    -0.01900
C855        C  0.35945271  0.42866852  0.48031928     0.03100
C856        C  0.38612863  0.42511034  0.49762092    -0.04700
C857        C  0.38859525  0.39992294  0.51621477    -0.01800
C858        C  0.36440877  0.37922149  0.51809004     0.03100
C859        C  0.30703581  0.41420916  0.46691643     0.37800
C860        C  0.41550494  0.39561646  0.53433906     0.37800
C861        C  0.36783926  0.35284349  0.53608074     0.36200
C862        C  0.35710633  0.45279474  0.45912905     0.36200
N863        N  0.37070041  0.33178295  0.55037698    -0.38600
N864        N  0.35499979  0.47197471  0.44222648    -0.38600
N865        N  0.43691167  0.39197329  0.54882264    -0.38100
N866        N  0.28480890  0.41857168  0.45395596    -0.38100
C867        C  0.32420839  0.65844860  0.50783517    -0.04700
C868        C  0.32135781  0.63032452  0.49421803    -0.01900
C869        C  0.34593138  0.61074552  0.49403740     0.03100
C870        C  0.37411279  0.61915223  0.50740988    -0.04700
C871        C  0.37642835  0.64726046  0.52178550    -0.01800
C872        C  0.35174218  0.66682211  0.52170640     0.03100
C873        C  0.29301667  0.62162349  0.47986704     0.37800
C874        C  0.40375557  0.65624968  0.53752608     0.37800
C875        C  0.35509581  0.69615946  0.53493569     0.36200
C876        C  0.34174186  0.58219197  0.47935818     0.36200
N877        N  0.35778480  0.71955025  0.54542107    -0.38600
N878        N  0.33788866  0.55939958  0.46786849    -0.38600
N879        N  0.42516485  0.66418816  0.55034235    -0.38100
N880        N  0.27054291  0.61479459  0.46819707    -0.38100
C881        C  0.64001830  0.39588704  0.50707408    -0.04700
C882        C  0.64479575  0.42545903  0.49844507    -0.01900
C883        C  0.62024201  0.44515096  0.49622141     0.03100
C884        C  0.59031189  0.43598649  0.50388892    -0.04700
C885        C  0.58568475  0.40570508  0.51168357    -0.01800
C886        C  0.61032967  0.38593604  0.51294690     0.03100
C887        C  0.67530279  0.43573940  0.49198811     0.37800
C888        C  0.55578903  0.39437579  0.51890032     0.37800
C889        C  0.60509159  0.35495915  0.51974204     0.36200
C890        C  0.62622160  0.47448056  0.48468213     0.36200
N891        N  0.60093338  0.33020879  0.52494450    -0.38600
N892        N  0.63157656  0.49772676  0.47533388    -0.38600
N893        N  0.53206412  0.38508451  0.52478407    -0.38100
N894        N  0.69962718  0.44391786  0.48691401    -0.38100
C895        C  0.61579497  0.68429925  0.50889961    -0.04700
C896        C  0.61580469  0.66311993  0.48498855    -0.01900
C897        C  0.59428554  0.63996710  0.48432308     0.03100
C898        C  0.57672510  0.63402500  0.50979228    -0.04700
C899        C  0.57890354  0.65278179  0.53503821    -0.01800
C900        C  0.59617718  0.67912583  0.53362925     0.03100
C901        C  0.63803358  0.66407635  0.46114465     0.37800
C902        C  0.56398489  0.64451985  0.56273326     0.37800
C903        C  0.59193186  0.70131339  0.55687779     0.36200
C904        C  0.58852811  0.62377568  0.45656814     0.36200
N905        N  0.58838407  0.71898297  0.57543075    -0.38600
N906        N  0.58323966  0.61158641  0.43418608    -0.38600
N907        N  0.55270665  0.63749545  0.58500019    -0.38100
N908        N  0.65532427  0.66430891  0.44172360    -0.38100
C909        C  0.33952551  0.53725056  0.35561684    -0.04700
C910        C  0.36046743  0.51363658  0.35514814    -0.01900
C911        C  0.38166923  0.51056444  0.37860821     0.03100
C912        C  0.38656727  0.53383423  0.39927058    -0.04700
C913        C  0.36961507  0.55990732  0.39649569    -0.01800
C914        C  0.34476994  0.56083695  0.37643018     0.03100
C915        C  0.36125387  0.49306390  0.32999632     0.37800
C916        C  0.37817155  0.58602569  0.41382398     0.37800
C917        C  0.32435817  0.58563620  0.37849458     0.36200
C918        C  0.39649421  0.48248295  0.38286343     0.36200
N919        N  0.30826639  0.60558493  0.38025114    -0.38600
N920        N  0.40740609  0.45969176  0.38680982    -0.38600
N921        N  0.38529952  0.60709502  0.42710498    -0.38100
N922        N  0.36223402  0.47687010  0.30978339    -0.38100
C923        C  0.48176286  0.63327822  0.40821966    -0.04700
C924        C  0.49794408  0.63170478  0.38081986    -0.01900
C925        C  0.49776292  0.65572842  0.36059207     0.03100
C926        C  0.48258137  0.68220200  0.36795085    -0.04700
C927        C  0.46602182  0.68356017  0.39502920    -0.01800
C928        C  0.46502690  0.65916908  0.41458288     0.03100
C929        C  0.51542225  0.60567565  0.37339737     0.37800
C930        C  0.44993682  0.71027600  0.40313522     0.37800
C931        C  0.44573744  0.66073985  0.44083823     0.36200
C932        C  0.51222518  0.65246697  0.33163247     0.36200
N933        N  0.43026174  0.66225793  0.46165494    -0.38600
N934        N  0.52368928  0.64911426  0.30858671    -0.38600
N935        N  0.43682801  0.73143142  0.40941968    -0.38100
N936        N  0.52933625  0.58496166  0.36732651    -0.38100
C937        C  0.63670592  0.53911542  0.36623470    -0.04700
C938        C  0.64196574  0.54844735  0.39606084    -0.01900
C939        C  0.61825549  0.54814146  0.41716897     0.03100
C940        C  0.58887778  0.53755979  0.40886625    -0.04700
C941        C  0.58407250  0.52782515  0.37874183    -0.01800
C942        C  0.60753943  0.52960505  0.35747950     0.03100
C943        C  0.67213278  0.55768161  0.40539149     0.37800
C944        C  0.55569637  0.51419324  0.36946786     0.37800
C945        C  0.60161067  0.52184193  0.32627960     0.36200
C946        C  0.62475733  0.55876812  0.44739018     0.36200
N947        N  0.59684752  0.51589964  0.30137636    -0.38600
N948        N  0.63029479  0.56706212  0.47146748    -0.38600
N949        N  0.53334409  0.50305273  0.36160164    -0.38100
N950        N  0.69606284  0.56504317  0.41319435    -0.38100
C951        C  0.48970823  0.43816207  0.39568914    -0.04700
C952        C  0.47981996  0.44749816  0.36668213    -0.01900
C953        C  0.48044334  0.42792732  0.34195444     0.03100
C954        C  0.49098028  0.39891768  0.34538978    -0.04700
C955        C  0.50251130  0.38993716  0.37340547    -0.01800
C956        C  0.50160233  0.40922487  0.39850749     0.03100
C957        C  0.46891406  0.47722367  0.36138468     0.37800
C958        C  0.51558780  0.36079415  0.37634986     0.37800
C959        C  0.51386864  0.39919208  0.42686829     0.36200
C960        C  0.47105513  0.43801549  0.31245216     0.36200
N961        N  0.52362546  0.39094950  0.44941259    -0.38600
N962        N  0.46368595  0.44609711  0.28897152    -0.38600
N963        N  0.52640553  0.33771396  0.37849193    -0.38100
N964        N  0.46057301  0.50089917  0.35652084    -0.38100
C965        C  0.62022464  0.53774521  0.65901876    -0.04700
C966        C  0.62893600  0.52466441  0.63149327    -0.01900
C967        C  0.60879496  0.52386464  0.60676459     0.03100
C968        C  0.57966230  0.53652475  0.60911092    -0.04700
C969        C  0.57177245  0.55110602  0.63627647    -0.01800
C970        C  0.59159909  0.55107163  0.66119819     0.03100
C971        C  0.65887626  0.51213066  0.62848358     0.37800
C972        C  0.54370252  0.56729115  0.63857168     0.37800
C973        C  0.58199680  0.56403172  0.68946725     0.36200
C974        C  0.61825360  0.50949528  0.57917459     0.36200
N975        N  0.57423747  0.57434354  0.71196665    -0.38600
N976        N  0.62613984  0.49818643  0.55721886    -0.38600
N977        N  0.52150003  0.58042182  0.64069865    -0.38100
N978        N  0.68269424  0.50202873  0.62622618    -0.38100
C979        C  0.48233092  0.42960132  0.60156148    -0.04700
C980        C  0.50823961  0.41358815  0.60937030    -0.01900
C981        C  0.50763909  0.39394539  0.63401272     0.03100
C982        C  0.48286340  0.39393701  0.65452076    -0.04700
C983        C  0.45763433  0.41198681  0.64722077    -0.01800
C984        C  0.45638675  0.42699265  0.61954425     0.03100
C985        C  0.53625232  0.41895225  0.59341431     0.31400
C986        C  0.43386585  0.41762275  0.66878765     0.37800
C987        C  0.42805073  0.43918620  0.60906762     0.36200
C988        C  0.53256704  0.37368441  0.63729403     0.36200
N989        N  0.40531880  0.44816400  0.60020735    -0.38600
N990        N  0.55279155  0.35781257  0.63947827    -0.38600
N991        N  0.41489773  0.42253718  0.68587285    -0.38100
N992        N  0.55882945  0.42395787  0.58135240    -0.38100
C993        C  0.33282103  0.52264564  0.64379688    -0.04700
C994        C  0.32628468  0.52976906  0.61382469    -0.01900
C995        C  0.34911269  0.52879348  0.59195081     0.03100
C996        C  0.37917534  0.52083947  0.59989628    -0.04700
C997        C  0.38523538  0.51286665  0.63027057    -0.01800
C998        C  0.36215502  0.51394620  0.65195298     0.03100
C999        C  0.29589068  0.53861898  0.60552805     0.37800
C1000       C  0.41521382  0.50413623  0.64007776     0.37800
C1001       C  0.36903852  0.50739450  0.68309891     0.36200
C1002       C  0.34111264  0.53693076  0.56153686     0.36200
N1003       N  0.37491185  0.50225836  0.70783633    -0.38600
N1004       N  0.33422574  0.54321424  0.53735783    -0.38600
N1005       N  0.43902799  0.49759237  0.64843184    -0.38100
N1006       N  0.27176866  0.54588678  0.59892668    -0.38100
C1007       C  0.46550534  0.66840641  0.65317760    -0.04700
C1008       C  0.47574790  0.67718733  0.62469533    -0.01900
C1009       C  0.47781185  0.65632071  0.60116383     0.03100
C1010       C  0.46773552  0.62658963  0.60546952    -0.04700
C1011       C  0.45322939  0.61946442  0.63285013    -0.01800
C1012       C  0.45304172  0.63989263  0.65688915     0.03100
C1013       C  0.48303947  0.70812802  0.61937731     0.37800
C1014       C  0.43648486  0.59203696  0.63595226     0.37800
C1015       C  0.43999674  0.63150614  0.68549549     0.36200
C1016       C  0.49022978  0.66612392  0.57276089     0.36200
N1017       N  0.42937377  0.62502503  0.70824633    -0.38600
N1018       N  0.49973480  0.67442935  0.55012959    -0.38600
N1019       N  0.42227961  0.57068316  0.63893926    -0.38100
N1020       N  0.48831285  0.73287293  0.61511761    -0.38100
C1021       C  0.69860767  0.78408406  0.61637817    -0.04700
C1022       C  0.67451610  0.79796266  0.60142413    -0.01900
C1023       C  0.66495461  0.78732788  0.57304591     0.03100
C1024       C  0.67975723  0.76311443  0.55958605    -0.04700
C1025       C  0.70543540  0.75102575  0.57336969    -0.01800
C1026       C  0.71494493  0.76159150  0.60165752     0.03100
C1027       C  0.65859241  0.82201755  0.61587356     0.37800
C1028       C  0.72152804  0.72718297  0.55872921     0.37800
C1029       C  0.74133571  0.74899128  0.61591258     0.36200
C1030       C  0.63897559  0.80026380  0.55836340     0.36200
N1031       N  0.76249952  0.73901499  0.62712922    -0.38600
N1032       N  0.61822761  0.81053328  0.54664232    -0.38600
N1033       N  0.73427421  0.70816641  0.54695635    -0.38100
N1034       N  0.64599069  0.84132742  0.62731528    -0.38100
C1035       C  0.69942268  0.65091477  0.75045296    -0.04700
C1036       C  0.67983067  0.63447689  0.76913541    -0.01900
C1037       C  0.67185481  0.60506009  0.76124647     0.03100
C1038       C  0.68379069  0.59209023  0.73498505    -0.04700
C1039       C  0.70599738  0.60735163  0.71845193    -0.01800
C1040       C  0.71391560  0.63661837  0.72623214     0.03100
C1041       C  0.66696888  0.64805128  0.79568808     0.37800
C1042       C  0.72032132  0.59300063  0.69305758     0.37800
C1043       C  0.73732869  0.65188037  0.70945605     0.36200
C1044       C  0.65073550  0.58847470  0.77957276     0.36200
N1045       N  0.75623369  0.66371028  0.69609624    -0.38600
N1046       N  0.63399714  0.57526966  0.79436959    -0.38600
N1047       N  0.73175057  0.58147997  0.67286677    -0.38100
N1048       N  0.65665414  0.65878843  0.81691071    -0.38100
C1049       C  0.53201857  0.73067132  0.71872996    -0.04700
C1050       C  0.53971666  0.76033212  0.71217403    -0.01900
C1051       C  0.56903005  0.77116265  0.71848328     0.03100
C1052       C  0.59082979  0.75211570  0.73057084    -0.04700
C1053       C  0.58322485  0.72239392  0.73679841    -0.01800
C1054       C  0.55378571  0.71173289  0.73112143     0.03100
C1055       C  0.51804859  0.77924917  0.69744609     0.37800
C1056       C  0.60573359  0.70274379  0.74904717     0.37800
C1057       C  0.54591151  0.68123313  0.73785308     0.36200
C1058       C  0.57719781  0.80144916  0.71123197     0.36200
N1059       N  0.53961769  0.65690207  0.74309431    -0.38600
N1060       N  0.58375387  0.82557039  0.70536937    -0.38600
N1061       N  0.62372113  0.68700443  0.75863700    -0.38100
N1062       N  0.50104179  0.79444058  0.68542378    -0.38100
C1063       C  0.73607873  0.32463909  0.62676144    -0.04700
C1064       C  0.73982000  0.35373505  0.61601783    -0.01900
C1065       C  0.73023676  0.36090133  0.58666820     0.03100
C1066       C  0.71589673  0.33927149  0.56828894    -0.04700
C1067       C  0.71392668  0.30973559  0.57842314    -0.01800
C1068       C  0.72456010  0.30239007  0.60734618     0.03100
C1069       C  0.75344066  0.37628279  0.63521757     0.37800
C1070       C  0.69973990  0.28712268  0.55968281     0.37800
C1071       C  0.72309292  0.27199270  0.61751021     0.36200
C1072       C  0.73542612  0.39041850  0.57509307     0.36200
N1073       N  0.72232482  0.24774134  0.62563106    -0.38600
N1074       N  0.73965648  0.41378755  0.56543795    -0.38600
N1075       N  0.68835939  0.26905014  0.54480539    -0.38100
N1076       N  0.76448114  0.39430814  0.65039951    -0.38100
C1077       C  0.53942502  0.34151256  0.73735563    -0.04700
C1078       C  0.55516353  0.31948261  0.72139705    -0.01900
C1079       C  0.58348902  0.30980286  0.73171812     0.03100
C1080       C  0.59674944  0.32224396  0.75796585    -0.04700
C1081       C  0.57980738  0.34229735  0.77544127    -0.01800
C1082       C  0.55129579  0.35211659  0.76496959     0.03100
C1083       C  0.54226020  0.30668223  0.69416031     0.37800
C1084       C  0.59191385  0.35346004  0.80363919     0.37800
C1085       C  0.53457504  0.37385057  0.78200796     0.36200
C1086       C  0.59901214  0.28669230  0.71526409     0.36200
N1087       N  0.52112068  0.39124219  0.79547422    -0.38600
N1088       N  0.61124210  0.26819567  0.70215024    -0.38600
N1089       N  0.60140350  0.36251558  0.82619710    -0.38100
N1090       N  0.53219785  0.29630382  0.67243373    -0.38100
C1091       C  0.70494684  0.42374946  0.74351033    -0.04700
C1092       C  0.72502212  0.44477472  0.73106433    -0.01900
C1093       C  0.71463163  0.47330770  0.72391203     0.03100
C1094       C  0.68455813  0.48128444  0.73048504    -0.04700
C1095       C  0.66507508  0.46079594  0.74448409    -0.01800
C1096       C  0.67504021  0.43197353  0.75038951     0.03100
C1097       C  0.75589622  0.43664429  0.72434944     0.37800
C1098       C  0.63462654  0.46938218  0.75256482     0.37800
C1099       C  0.65433718  0.41063268  0.76333647     0.36200
C1100       C  0.73425087  0.49384289  0.70816272     0.36200
N1101       N  0.63774170  0.39353446  0.77345477    -0.38600
N1102       N  0.74970013  0.51021319  0.69534116    -0.38600
N1103       N  0.61040647  0.47637622  0.75901884    -0.38100
N1104       N  0.78057943  0.43023120  0.71909133    -0.38100
C1105       C  0.22966671  0.74949802  0.60970411    -0.04700
C1106       C  0.25312682  0.76395693  0.59390127    -0.01900
C1107       C  0.26252577  0.75297679  0.56584986     0.03100
C1108       C  0.24883431  0.72724530  0.55367844    -0.04700
C1109       C  0.22367974  0.71430250  0.56809026    -0.01800
C1110       C  0.21383161  0.72565394  0.59596991     0.03100
C1111       C  0.26798221  0.78989656  0.60678022     0.37800
C1112       C  0.20858305  0.68883820  0.55456024     0.37800
C1113       C  0.18836520  0.71197595  0.61108165     0.36200
C1114       C  0.28693681  0.76757678  0.54985335     0.36200
N1115       N  0.16785759  0.70116064  0.62294849    -0.38600
N1116       N  0.30627319  0.77919412  0.53689480    -0.38600
N1117       N  0.19662247  0.66853716  0.54362043    -0.38100
N1118       N  0.27986319  0.81065908  0.61685847    -0.38100
C1119       C  0.42051077  0.73206169  0.73237441    -0.04700
C1120       C  0.40713816  0.75625338  0.71794707    -0.01900
C1121       C  0.37825419  0.76536621  0.72650343     0.03100
C1122       C  0.36281754  0.75035839  0.74959527    -0.04700
C1123       C  0.37765831  0.72858540  0.76644381    -0.01800
C1124       C  0.40641245  0.71892642  0.75738139     0.03100
C1125       C  0.42230230  0.77056106  0.69303723     0.37800
C1126       C  0.36277381  0.71528893  0.79202842     0.37800
C1127       C  0.42066917  0.69444568  0.77252688     0.36200
C1128       C  0.36402483  0.78968504  0.71093728     0.36200
N1129       N  0.43197450  0.67479729  0.78451306    -0.38600
N1130       N  0.35280323  0.80908218  0.69846473    -0.38600
N1131       N  0.35086013  0.70494973  0.81257683    -0.38100
N1132       N  0.43420224  0.78191133  0.67304642    -0.38100
C1133       C  0.26797427  0.58751337  0.70567369    -0.04700
C1134       C  0.28968384  0.60635855  0.71949575    -0.01900
C1135       C  0.28288490  0.63616134  0.72516961     0.03100
C1136       C  0.25396555  0.64699062  0.71810523    -0.04700
C1137       C  0.23224804  0.62825408  0.70417585    -0.01800
C1138       C  0.23927232  0.59851568  0.69789963     0.03100
C1139       C  0.31912476  0.59503881  0.72783618     0.37800
C1140       C  0.20347488  0.64011540  0.69452283     0.37800
C1141       C  0.21751312  0.57963642  0.68228636     0.36200
C1142       C  0.30589095  0.65578466  0.73779278     0.36200
N1143       N  0.20016524  0.56464648  0.66972955    -0.38600
N1144       N  0.32447915  0.67139910  0.74745655    -0.38600
N1145       N  0.18068950  0.64965004  0.68646016    -0.38100
N1146       N  0.34257937  0.58595775  0.73441438    -0.38100
C1147       C  0.23483958  0.31559239  0.62087104    -0.04700
C1148       C  0.25281046  0.29535948  0.60470189    -0.01900
C1149       C  0.26464747  0.30301342  0.57642770     0.03100
C1150       C  0.25805366  0.33068012  0.56370615    -0.04700
C1151       C  0.23878490  0.35030283  0.57900858    -0.01800
C1152       C  0.22779688  0.34308617  0.60784998     0.03100
C1153       C  0.26028985  0.26703632  0.61767241     0.37800
C1154       C  0.23021742  0.37780044  0.56494103     0.37800
C1155       C  0.21006559  0.36431343  0.62450989     0.36200
C1156       C  0.28458020  0.28284103  0.56079119     0.36200
N1157       N  0.19600649  0.38140546  0.63773859    -0.38600
N1158       N  0.30057342  0.26695388  0.54821258    -0.38600
N1159       N  0.22320746  0.39957086  0.55346712    -0.38100
N1160       N  0.26641406  0.24430215  0.62761664    -0.38100
C1161       C  0.24782612  0.41912176  0.73488759    -0.04700
C1162       C  0.22740432  0.43549959  0.71734975    -0.01900
C1163       C  0.23516026  0.46444580  0.70847887     0.03100
C1164       C  0.26299766  0.47712025  0.71770639    -0.04700
C1165       C  0.28178858  0.46189507  0.73788127    -0.01800
C1166       C  0.27423403  0.43287838  0.74643043     0.03100
C1167       C  0.19902767  0.42221907  0.70745327     0.37800
C1168       C  0.30922297  0.47592146  0.74929943     0.37800
C1169       C  0.29348483  0.41726466  0.76729130     0.36200
C1170       C  0.21535374  0.48051587  0.68852268     0.36200
N1171       N  0.30877110  0.40503665  0.78416902    -0.38600
N1172       N  0.19952452  0.49324445  0.67254460    -0.38600
N1173       N  0.33102317  0.48712042  0.75858014    -0.38100
N1174       N  0.17624138  0.41183292  0.69968823    -0.38100
C1175       C  0.36800679  0.31726894  0.75305625    -0.04700
C1176       C  0.38209814  0.30261745  0.72870145    -0.01900
C1177       C  0.41118830  0.31134370  0.71906809     0.03100
C1178       C  0.42642552  0.33515220  0.73329258    -0.04700
C1179       C  0.41308722  0.34898039  0.75850553    -0.01800
C1180       C  0.38408120  0.33988525  0.76851933     0.03100
C1181       C  0.36640809  0.27879496  0.71295878     0.37800
C1182       C  0.42858243  0.37360063  0.77317066     0.37800
C1183       C  0.37015434  0.35484053  0.79370239     0.36200
C1184       C  0.42540247  0.29599294  0.69422173     0.36200
N1185       N  0.35912254  0.36670488  0.81391164    -0.38600
N1186       N  0.43682259  0.28375968  0.67445816    -0.38600
N1187       N  0.44097868  0.39331399  0.78473244    -0.38100
N1188       N  0.35418971  0.25981628  0.70006780    -0.38100
C1189       C  0.08591988  0.13021669  0.00877390    -0.04700
C1190       C  0.10922258  0.12716547  0.98725165    -0.01900
C1191       C  0.13462746  0.14642310  0.98752700     0.03100
C1192       C  0.13633362  0.17051453  0.00801256    -0.04700
C1193       C  0.11252351  0.17402528  0.02902376    -0.01800
C1194       C  0.08829947  0.15330812  0.03015964     0.03100
C1195       C  0.10747229  0.10412454  0.96451007     0.37800
C1196       C  0.11237032  0.19914125  0.04944920     0.37800
C1197       C  0.06729045  0.15434155  0.05499657     0.36200
C1198       C  0.15954407  0.14044995  0.96729037     0.36200
N1199       N  0.05115311  0.15475783  0.07534242    -0.38600
N1200       N  0.17925155  0.13554118  0.95105300    -0.38600
N1201       N  0.11194168  0.21898814  0.06598763    -0.38100
N1202       N  0.10701078  0.08600443  0.94607119    -0.38100
C1203       C  0.20897271  0.23622423  0.95110944    -0.04700
C1204       C  0.23771168  0.22865795  0.93971997    -0.01900
C1205       C  0.24645769  0.23781337  0.91070609     0.03100
C1206       C  0.22678932  0.25516470  0.89327050    -0.04700
C1207       C  0.19931537  0.26494786  0.90592770    -0.01800
C1208       C  0.19026751  0.25519701  0.93450933     0.03100
C1209       C  0.25776258  0.21041553  0.95735588     0.37800
C1210       C  0.18018412  0.28503212  0.88937642     0.37800
C1211       C  0.16153510  0.26449915  0.94681046     0.36200
C1212       C  0.27479547  0.22783132  0.89817158     0.36200
N1213       N  0.13859848  0.27169760  0.95672003    -0.38600
N1214       N  0.29738119  0.21973186  0.88819854    -0.38600
N1215       N  0.16499084  0.30112454  0.87621327    -0.38100
N1216       N  0.27377727  0.19603288  0.97158827    -0.38100
C1217       C  0.67451000  0.75582258  0.44855557    -0.04700
C1218       C  0.69657308  0.73639866  0.43721529    -0.01900
C1219       C  0.70756714  0.74002382  0.40796355     0.03100
C1220       C  0.69732241  0.76357224  0.39033528    -0.04700
C1221       C  0.67616633  0.78374013  0.40205487    -0.01800
C1222       C  0.66450486  0.77966252  0.43114079     0.03100
C1223       C  0.70779247  0.71247627  0.45560738     0.37800
C1224       C  0.66574208  0.80808225  0.38387206     0.37800
C1225       C  0.64172385  0.79937700  0.44288963     0.36200
C1226       C  0.72930252  0.71942230  0.39587388     0.36200
N1227       N  0.62345171  0.81499767  0.45229811    -0.38600
N1228       N  0.74656257  0.70294300  0.38616024    -0.38600
N1229       N  0.65737629  0.82754478  0.36943958    -0.38100
N1230       N  0.71670429  0.69336990  0.47022070    -0.38100
C1231       C  0.59719030  0.77568303  0.28497572    -0.04700
C1232       C  0.58266046  0.74975034  0.27383852    -0.01900
C1233       C  0.55396708  0.74132522  0.28453633     0.03100
C1234       C  0.53990741  0.75810033  0.30718779    -0.04700
C1235       C  0.55293304  0.78543367  0.31627515    -0.01800
C1236       C  0.58138869  0.79442308  0.30487590     0.03100
C1237       C  0.59730917  0.73147459  0.25139713     0.37800
C1238       C  0.53743121  0.80390137  0.33790597     0.37800
C1239       C  0.59467713  0.82237763  0.31451126     0.36200
C1240       C  0.53846379  0.71574502  0.27163693     0.36200
N1241       N  0.60476458  0.84494795  0.32214839    -0.38600
N1242       N  0.52587377  0.69567399  0.26096976    -0.38600
N1243       N  0.52503434  0.81869805  0.35510078    -0.38100
N1244       N  0.60886820  0.71670612  0.23360327    -0.38100
C1245       C  0.73584867  0.64580468  0.28835382    -0.04700
C1246       C  0.71842638  0.62880811  0.26776750    -0.01900
C1247       C  0.70846385  0.60005701  0.27535103     0.03100
C1248       C  0.71605136  0.58809613  0.30353444    -0.04700
C1249       C  0.73570324  0.60409768  0.32295973    -0.01800
C1250       C  0.74582085  0.63279994  0.31523455     0.03100
C1251       C  0.71036600  0.64120385  0.23890471     0.37800
C1252       C  0.74487112  0.59122260  0.35123340     0.37800
C1253       C  0.76636443  0.64895924  0.33492788     0.36200
C1254       C  0.68912848  0.58346805  0.25477372     0.36200
N1255       N  0.78328486  0.66147490  0.35045970    -0.38600
N1256       N  0.67364793  0.57046652  0.23820031    -0.38600
N1257       N  0.75218481  0.58082820  0.37374291    -0.38100
N1258       N  0.70419697  0.65101984  0.21578569    -0.38100
C1259       C  0.73421609  0.31286016  0.39812772    -0.04700
C1260       C  0.70850844  0.30003170  0.41192219    -0.01900
C1261       C  0.69948059  0.30951370  0.44064385     0.03100
C1262       C  0.71605360  0.33186102  0.45585861    -0.04700
C1263       C  0.74325644  0.34277078  0.44335609    -0.01800
C1264       C  0.75241926  0.33318762  0.41452189     0.03100
C1265       C  0.69109358  0.27714553  0.39637836     0.37800
C1266       C  0.76115425  0.36466397  0.45968829     0.37800
C1267       C  0.77964905  0.34535510  0.40121674     0.36200
C1268       C  0.67286464  0.29651151  0.45447668     0.36200
N1269       N  0.80140143  0.35516261  0.39069520    -0.38600
N1270       N  0.65170602  0.28609493  0.46556840    -0.38600
N1271       N  0.77547510  0.38207694  0.47278146    -0.38100
N1272       N  0.67721508  0.25888540  0.38402565    -0.38100
C1273       C  0.71941301  0.41674095  0.29112063    -0.04700
C1274       C  0.72250015  0.42669160  0.32114264    -0.01900
C1275       C  0.71651599  0.45643589  0.32875270     0.03100
C1276       C  0.70667778  0.47641419  0.30654781    -0.04700
C1277       C  0.70460688  0.46673305  0.27638390    -0.01800
C1278       C  0.71156429  0.43723634  0.26862016     0.03100
C1279       C  0.73277371  0.40658032  0.34413996     0.37800
C1280       C  0.69392920  0.48666087  0.25339907     0.37800
C1281       C  0.70984964  0.42796473  0.23741970     0.36200
C1282       C  0.72082327  0.46663559  0.35947416     0.36200
N1283       N  0.70862685  0.42106165  0.21237934    -0.38600
N1284       N  0.72425079  0.47490338  0.38391879    -0.38600
N1285       N  0.68532115  0.50230660  0.23487544    -0.38100
N1286       N  0.74105136  0.39067923  0.36257914    -0.38100
C1287       C  0.60354706  0.31985575  0.25613384    -0.04700
C1288       C  0.59549703  0.34985197  0.25375499    -0.01900
C1289       C  0.56543798  0.35855658  0.25895753     0.03100
C1290       C  0.54346718  0.33762852  0.26835642    -0.04700
C1291       C  0.55129157  0.30740604  0.26978365    -0.01800
C1292       C  0.58123748  0.29855626  0.26354115     0.03100
C1293       C  0.61860995  0.37205600  0.24776771     0.37800
C1294       C  0.52916253  0.28569988  0.27966365     0.37800
C1295       C  0.58978474  0.26790127  0.26717718     0.36200
C1296       C  0.55723116  0.38934727  0.25553642     0.36200
N1297       N  0.59685147  0.24354156  0.27028328    -0.38600
N1298       N  0.55048855  0.41385266  0.25290566    -0.38600
N1299       N  0.51148467  0.26840304  0.28757048    -0.38100
N1300       N  0.63714791  0.38977340  0.24345093    -0.38100
C1301       C  0.26441855  0.72421790  0.44254629    -0.04700
C1302       C  0.28853059  0.73782030  0.42687487    -0.01900
C1303       C  0.28450768  0.74665598  0.39692773     0.03100
C1304       C  0.25619457  0.74247806  0.38273405    -0.04700
C1305       C  0.23202570  0.72916463  0.39844465    -0.01800
C1306       C  0.23604019  0.72024824  0.42837536     0.03100
C1307       C  0.31747535  0.74291533  0.44169913     0.37800
C1308       C  0.20354437  0.72300236  0.38316405     0.37800
C1309       C  0.21121610  0.70611350  0.44414124     0.36200
C1310       C  0.30953561  0.76003132  0.38082043     0.36200
N1311       N  0.19122247  0.69497902  0.45654706    -0.38600
N1312       N  0.32972033  0.77047558  0.36813289    -0.38600
N1313       N  0.18100637  0.71786872  0.37078486    -0.38100
N1314       N  0.34050090  0.74678689  0.45363075    -0.38100
C1315       C  0.23955622  0.64129085  0.27128712    -0.04700
C1316       C  0.22380678  0.62707594  0.29470758    -0.01900
C1317       C  0.23333054  0.59915566  0.30500732     0.03100
C1318       C  0.25898885  0.58562390  0.29227603    -0.04700
C1319       C  0.27361640  0.59905812  0.26776182    -0.01800
C1320       C  0.26367998  0.62656861  0.25704115     0.03100
C1321       C  0.19935025  0.64223341  0.30972890     0.37800
C1322       C  0.29970836  0.58503327  0.25437848     0.37800
C1323       C  0.27880173  0.64009243  0.23170289     0.36200
C1324       C  0.21798770  0.58527582  0.33001790     0.36200
N1325       N  0.29088105  0.65059793  0.21134323    -0.38600
N1326       N  0.20579745  0.57417904  0.34999481    -0.38600
N1327       N  0.32068109  0.57379228  0.24410557    -0.38100
N1328       N  0.17996762  0.65452693  0.32171172    -0.38100
C1329       C  0.37059581  0.77807305  0.28864857    -0.04700
C1330       C  0.38481999  0.79258354  0.31318253    -0.01900
C1331       C  0.41337845  0.78294196  0.32339584     0.03100
C1332       C  0.42755010  0.75881235  0.30911979    -0.04700
C1333       C  0.41389993  0.74519103  0.28391398    -0.01800
C1334       C  0.38593991  0.75524081  0.27328088     0.03100
C1335       C  0.36951189  0.81627880  0.32880009     0.37800
C1336       C  0.42800874  0.71984509  0.26974315     0.37800
C1337       C  0.37263333  0.74158188  0.24665395     0.36200
C1338       C  0.42745008  0.79662793  0.34956864     0.36200
N1339       N  0.36217345  0.73064424  0.22539667    -0.38600
N1340       N  0.43873454  0.80733316  0.37054115    -0.38600
N1341       N  0.43908524  0.69939717  0.25877014    -0.38100
N1342       N  0.35736422  0.83518739  0.34137869    -0.38100
C1343       C  0.08092143  0.02342496  0.10790663    -0.04700
C1344       C  0.10673746  0.00592331  0.10236384    -0.01900
C1345       C  0.13078139  0.00502466  0.12325401     0.03100
C1346       C  0.12895512  0.02063210  0.15073883    -0.04700
C1347       C  0.10238389  0.03659529  0.15728037    -0.01800
C1348       C  0.07876685  0.03844317  0.13583734     0.03100
C1349       C  0.10858191  0.98788422  0.07550121     0.37800
C1350       C  0.09930648  0.05112727  0.18625411     0.37800
C1351       C  0.05293034  0.05690101  0.14224138     0.36200
C1352       C  0.15789358  0.98871358  0.11579441     0.36200
N1353       N  0.03244409  0.07173924  0.14750518    -0.38600
N1354       N  0.17940010  0.97560351  0.10981414    -0.38600
N1355       N  0.09707233  0.06269135  0.20939188    -0.38100
N1356       N  0.11076024  0.97296735  0.05448371    -0.38100
C1357       C  0.23267175  0.91374693  0.22387389    -0.04700
C1358       C  0.20926448  0.92643972  0.24114045    -0.01900
C1359       C  0.19858037  0.95497790  0.23452305     0.03100
C1360       C  0.21076098  0.97088056  0.21024330    -0.04700
C1361       C  0.23564276  0.95927406  0.19445579    -0.01800
C1362       C  0.24692782  0.93096877  0.20158839     0.03100
C1363       C  0.19565081  0.90981925  0.26542519     0.37800
C1364       C  0.24853564  0.97592573  0.16984733     0.37800
C1365       C  0.27234989  0.91921911  0.18516687     0.36200
C1366       C  0.17457667  0.96783869  0.25227652     0.36200
N1367       N  0.29274905  0.91015044  0.17193342    -0.38600
N1368       N  0.15553930  0.97828198  0.26643944    -0.38600
N1369       N  0.25851452  0.98940968  0.15018566    -0.38100
N1370       N  0.18471429  0.89669004  0.28483661    -0.38100
C1371       C  0.24040582  0.29911296  0.39503118    -0.04700
C1372       C  0.26718267  0.28754566  0.40748298    -0.01900
C1373       C  0.27693892  0.29670434  0.43618625     0.03100
C1374       C  0.26034548  0.31798166  0.45230174    -0.04700
C1375       C  0.23276250  0.32844210  0.44047835    -0.01800
C1376       C  0.22258514  0.31865874  0.41200343     0.03100
C1377       C  0.28548434  0.26724459  0.39006691     0.37800
C1378       C  0.21603418  0.35091885  0.45654720     0.37800
C1379       C  0.19507302  0.33046152  0.39916914     0.36200
C1380       C  0.30457268  0.28488545  0.44876050     0.36200
N1381       N  0.17317155  0.33985642  0.38882447    -0.38600
N1382       N  0.32663066  0.27542736  0.45870174    -0.38600
N1383       N  0.20275777  0.36899486  0.46923515    -0.38100
N1384       N  0.30014816  0.25130881  0.37600718    -0.38100
C1385       C  0.36812148  0.32438412  0.25842807    -0.04700
C1386       C  0.38128873  0.34958140  0.24508678    -0.01900
C1387       C  0.41146586  0.35790648  0.25215311     0.03100
C1388       C  0.42873849  0.34073460  0.27219115    -0.04700
C1389       C  0.41554146  0.31550265  0.28542676    -0.01800
C1390       C  0.38548628  0.30723284  0.27843128     0.03100
C1391       C  0.36323688  0.36765667  0.22529521     0.37800
C1392       C  0.43241650  0.29902259  0.30764245     0.37800
C1393       C  0.37233087  0.28114303  0.29222298     0.36200
C1394       C  0.42421349  0.38494646  0.24005437     0.36200
N1395       N  0.36210936  0.26026871  0.30332107    -0.38600
N1396       N  0.43421151  0.40668460  0.23054090    -0.38600
N1397       N  0.44585520  0.28619163  0.32558583    -0.38100
N1398       N  0.34861372  0.38193207  0.20954664    -0.38100
C1399       C  0.24758870  0.41513458  0.29167230    -0.04700
C1400       C  0.25447963  0.43567963  0.26889219    -0.01900
C1401       C  0.25992985  0.46566220  0.27618092     0.03100
C1402       C  0.25850636  0.47545012  0.30638669    -0.04700
C1403       C  0.24988847  0.45521759  0.32891694    -0.01800
C1404       C  0.24485213  0.42508964  0.32168068     0.03100
C1405       C  0.25786396  0.42570865  0.23804170     0.37800
C1406       C  0.24587880  0.46554394  0.35953919     0.37800
C1407       C  0.23673638  0.40444193  0.34516595     0.36200
C1408       C  0.26832118  0.48607288  0.25255404     0.36200
N1409       N  0.23038563  0.38813375  0.36408031    -0.38600
N1410       N  0.27480331  0.50224765  0.23356469    -0.38600
N1411       N  0.24257099  0.47386392  0.38392162    -0.38100
N1412       N  0.26078315  0.41792827  0.21343222    -0.38100
C1413       C  0.21438628  0.23208442  0.06279116    -0.04700
C1414       C  0.24134649  0.22123125  0.07544077    -0.01900
C1415       C  0.25040955  0.23047703  0.10450015     0.03100
C1416       C  0.23303047  0.25132082  0.12031899    -0.04700
C1417       C  0.20811011  0.26465993  0.10611124    -0.01800
C1418       C  0.19838286  0.25459083  0.07770278     0.03100
C1419       C  0.25937584  0.20026700  0.05875801     0.37800
C1420       C  0.19255810  0.28888320  0.12074912     0.37800
C1421       C  0.17164645  0.26709407  0.06393653     0.36200
C1422       C  0.27669095  0.21762029  0.11863577     0.36200
N1423       N  0.15032196  0.27699143  0.05291806    -0.38600
N1424       N  0.29762436  0.20729255  0.12996168    -0.38600
N1425       N  0.18037774  0.30848891  0.13213265    -0.38100
N1426       N  0.27394785  0.18377330  0.04529730    -0.38100
C1427       C  0.20555571  0.08233908  0.20592218    -0.04700
C1428       C  0.21252716  0.10355362  0.18373552    -0.01900
C1429       C  0.21818587  0.13331966  0.19190174     0.03100
C1430       C  0.21832245  0.14197942  0.22247326    -0.04700
C1431       C  0.21233582  0.12056948  0.24473349    -0.01800
C1432       C  0.20576306  0.09096712  0.23648678     0.03100
C1433       C  0.21361429  0.09483051  0.15233087     0.37800
C1434       C  0.21031472  0.12932620  0.27604309     0.37800
C1435       C  0.19726421  0.06985332  0.25943496     0.36200
C1436       C  0.22308248  0.15513842  0.16863356     0.36200
N1437       N  0.19040739  0.05304323  0.27771881    -0.38600
N1438       N  0.22643217  0.17253909  0.14999160    -0.38600
N1439       N  0.20821053  0.13589666  0.30108907    -0.38100
N1440       N  0.21438787  0.08795603  0.12727126    -0.38100
C1441       C  0.97539606  0.15548342  0.17189867    -0.04700
C1442       C  0.96508869  0.12596054  0.17255142    -0.01900
C1443       C  0.96289333  0.10914505  0.14574750     0.03100
C1444       C  0.97212081  0.12134772  0.11767164    -0.04700
C1445       C  0.97926229  0.15213859  0.11699784    -0.01800
C1446       C  0.98149379  0.16878565  0.14401928     0.03100
C1447       C  0.95732239  0.11257293  0.20108526     0.37800
C1448       C  0.98345080  0.16740025  0.08880676     0.37800
C1449       C  0.98997070  0.19988930  0.14328661     0.36200
C1450       C  0.94986713  0.07959620  0.14753125     0.36200
N1451       N  0.99678285  0.22467836  0.14306263    -0.38600
N1452       N  0.93939969  0.05611141  0.14935480    -0.38600
N1453       N  0.98641884  0.18004059  0.06649480    -0.38100
N1454       N  0.95113358  0.10181896  0.22376967    -0.38100
C1455       C  0.92964604  0.21632418  0.25306478    -0.04700
C1456       C  0.91850642  0.24101899  0.23756042    -0.01900
C1457       C  0.89033200  0.25285910  0.24524359     0.03100
C1458       C  0.87288042  0.23980410  0.26822173    -0.04700
C1459       C  0.88522349  0.21685642  0.28556490    -0.01800
C1460       C  0.91373540  0.20517001  0.27802238     0.03100
C1461       C  0.93552562  0.25352662  0.21281583     0.37800
C1462       C  0.86782684  0.20405950  0.30982453     0.37800
C1463       C  0.92611586  0.18096523  0.29511070     0.36200
C1464       C  0.87887726  0.27803553  0.22881928     0.36200
N1465       N  0.93596540  0.16173039  0.30892484    -0.38600
N1466       N  0.86986695  0.29807762  0.21562995    -0.38600
N1467       N  0.85391003  0.19385575  0.32917839    -0.38100
N1468       N  0.94898074  0.26347369  0.19301605    -0.38100
C1469       C  0.04219958  0.20857177  0.24666540    -0.04700
C1470       C  0.04971315  0.23911763  0.24807487    -0.01900
C1471       C  0.07942847  0.24835682  0.25551274     0.03100
C1472       C  0.10231927  0.22724902  0.25940867    -0.04700
C1473       C  0.09495517  0.19683145  0.25799131    -0.01800
C1474       C  0.06478869  0.18754804  0.25289784     0.03100
C1475       C  0.02755062  0.26112132  0.23994898     0.37800
C1476       C  0.11862504  0.17508155  0.26101656     0.37800
C1477       C  0.05696754  0.15634082  0.25433389     0.36200
C1478       C  0.08682080  0.27966996  0.25771460     0.36200
N1479       N  0.05066009  0.13147465  0.25570860    -0.38600
N1480       N  0.09270005  0.30462490  0.25966169    -0.38600
N1481       N  0.13760867  0.15779940  0.26307542    -0.38100
N1482       N  0.01007200  0.27879052  0.23329068    -0.38100
C1483       C  0.75605181  0.97284955  0.21421462    -0.04700
C1484       C  0.73024773  0.95978380  0.20058578    -0.01900
C1485       C  0.72117108  0.93077728  0.20831016     0.03100
C1486       C  0.73773755  0.91500084  0.22997908    -0.04700
C1487       C  0.76181332  0.92922251  0.24553886    -0.01800
C1488       C  0.77134942  0.95781847  0.23724784     0.03100
C1489       C  0.71415578  0.97564223  0.17741444     0.37800
C1490       C  0.77709852  0.91416155  0.26983666     0.37800
C1491       C  0.79793227  0.97112331  0.25127348     0.36200
C1492       C  0.69619158  0.91650434  0.19249708     0.36200
N1493       N  0.81927372  0.98156786  0.26235079    -0.38600
N1494       N  0.67629178  0.90510239  0.17982743    -0.38600
N1495       N  0.78912761  0.90224994  0.28936011    -0.38100
N1496       N  0.70143870  0.98844633  0.15894327    -0.38100
C1497       C  0.76771668  0.08386033  0.21170400    -0.04700
C1498       C  0.78755233  0.09770279  0.23252977    -0.01900
C1499       C  0.78307701  0.12739835  0.24120550     0.03100
C1500       C  0.75866108  0.14335189  0.22920298    -0.04700
C1501       C  0.73906119  0.12964295  0.20806244    -0.01800
C1502       C  0.74354132  0.09992352  0.19935447     0.03100
C1503       C  0.81310109  0.08151389  0.24430897     0.37800
C1504       C  0.71520765  0.14666252  0.19423046     0.37800
C1505       C  0.72409259  0.08623249  0.17678731     0.36200
C1506       C  0.80403667  0.14176507  0.26190033     0.36200
N1507       N  0.70867310  0.07534958  0.15867389    -0.38600
N1508       N  0.82094485  0.15320072  0.27826390    -0.38600
N1509       N  0.69643555  0.16048984  0.18308942    -0.38100
N1510       N  0.83349125  0.06844388  0.25341325    -0.38100
C1511       C  0.82890657  0.02073883  0.14420960    -0.04700
C1512       C  0.82280488  0.03080697  0.11504296    -0.01900
C1513       C  0.84583167  0.03135026  0.09330559     0.03100
C1514       C  0.87547759  0.02118051  0.10049660    -0.04700
C1515       C  0.88026430  0.00818083  0.12903214    -0.01800
C1516       C  0.85753028  0.00917596  0.15110684     0.03100
C1517       C  0.79257688  0.04071609  0.10742733     0.37800
C1518       C  0.90779608  0.99219418  0.13545172     0.37800
C1519       C  0.86404514  0.99944833  0.18139731     0.36200
C1520       C  0.83814866  0.04222782  0.06364207     0.36200
N1521       N  0.86934001  0.99202216  0.20564024    -0.38600
N1522       N  0.83159241  0.05065615  0.04003971    -0.38600
N1523       N  0.92952387  0.97909674  0.14060225    -0.38100
N1524       N  0.76849961  0.04857534  0.10140860    -0.38100
C1525       C  0.04204493  0.79556953  0.18880647    -0.04700
C1526       C  0.06110333  0.78120244  0.16808547    -0.01900
C1527       C  0.09013548  0.77183262  0.17707645     0.03100
C1528       C  0.10024320  0.77674074  0.20682709    -0.04700
C1529       C  0.08059594  0.78966869  0.22793112    -0.01800
C1530       C  0.05155684  0.79892856  0.21902497     0.03100
C1531       C  0.05090297  0.77638750  0.13743843     0.37800
C1532       C  0.09083719  0.79467236  0.25856436     0.37800
C1533       C  0.03203417  0.81326690  0.24067763     0.36200
C1534       C  0.11012120  0.75818247  0.15544140     0.36200
N1535       N  0.01634979  0.82464838  0.25786814    -0.38600
N1536       N  0.12607405  0.74728037  0.13818223    -0.38600
N1537       N  0.09898774  0.79873742  0.28298725    -0.38100
N1538       N  0.04262268  0.77263044  0.11301132    -0.38100
C1539       C  0.92971869  0.79930405  0.19888989    -0.04700
C1540       C  0.91621966  0.77200987  0.19029111    -0.01900
C1541       C  0.88758821  0.76372699  0.20171906     0.03100
C1542       C  0.87246819  0.78270466  0.22184838    -0.04700
C1543       C  0.88768552  0.80828889  0.23297167    -0.01800
C1544       C  0.91603773  0.81667345  0.22132574     0.03100
C1545       C  0.93132414  0.75292873  0.16895194     0.37800
C1546       C  0.87431422  0.82593178  0.25669816     0.37800
C1547       C  0.93129363  0.84319663  0.23246150     0.36200
C1548       C  0.87306516  0.73651773  0.19153956     0.36200
N1549       N  0.94365534  0.86426560  0.24123882    -0.38600
N1550       N  0.86141721  0.71480055  0.18348826    -0.38600
N1551       N  0.86397391  0.84001687  0.27577865    -0.38100
N1552       N  0.94349236  0.73759353  0.15208830    -0.38100
C1553       C  0.98306755  0.87362998  0.13360520    -0.04700
C1554       C  0.96368832  0.87413940  0.10820828    -0.01900
C1555       C  0.96173114  0.89974450  0.09026581     0.03100
C1556       C  0.98016743  0.92491654  0.09646475    -0.04700
C1557       C  0.99947855  0.92450922  0.12191104    -0.01800
C1558       C  0.00071479  0.89920361  0.14046257     0.03100
C1559       C  0.94632722  0.84789854  0.09978627     0.37800
C1560       C  0.01878710  0.94984875  0.12877737     0.37800
C1561       C  0.02000557  0.89978941  0.16689716     0.36200
C1562       C  0.93975476  0.90041406  0.06598110     0.36200
N1563       N  0.03554893  0.90030059  0.18787106    -0.38600
N1564       N  0.92201352  0.90087057  0.04682167    -0.38600
N1565       N  0.03420320  0.96999914  0.13444131    -0.38100
N1566       N  0.93251129  0.82697258  0.09303278    -0.38100
C1567       C  0.19118954  0.97529389  0.79357809    -0.04700
C1568       C  0.21946374  0.96317159  0.80130788    -0.01900
C1569       C  0.22645692  0.93410034  0.79237656     0.03100
C1570       C  0.20458142  0.91661944  0.77709716    -0.04700
C1571       C  0.17642457  0.92875745  0.76933594    -0.01800
C1572       C  0.17008683  0.95829646  0.77673486     0.03100
C1573       C  0.24065707  0.98002302  0.81984545     0.37800
C1574       C  0.15385430  0.91072015  0.75387898     0.37800
C1575       C  0.14188145  0.97123058  0.76687819     0.36200
C1576       C  0.25564571  0.92184770  0.80003327     0.36200
N1577       N  0.11942406  0.98149321  0.75886128    -0.38600
N1578       N  0.27904219  0.91233889  0.80615043    -0.38600
N1579       N  0.13580427  0.89613266  0.74187440    -0.38100
N1580       N  0.25732109  0.99357992  0.83476715    -0.38100
C1581       C  0.20444342  0.08556805  0.80139880    -0.04700
C1582       C  0.19982053  0.09467875  0.77143838    -0.01900
C1583       C  0.20692272  0.12390146  0.76305304     0.03100
C1584       C  0.21854441  0.14412632  0.78458100    -0.04700
C1585       C  0.22463771  0.13460781  0.81408323    -0.01800
C1586       C  0.21808924  0.10524505  0.82232268     0.03100
C1587       C  0.18609252  0.07457358  0.74961158     0.37800
C1588       C  0.23706269  0.15519251  0.83617977     0.37800
C1589       C  0.22503900  0.09530823  0.85246166     0.36200
C1590       C  0.20009216  0.13369555  0.73284746     0.36200
N1591       N  0.23055079  0.08729861  0.87646348    -0.38600
N1592       N  0.19436255  0.14136793  0.70878092    -0.38600
N1593       N  0.24677679  0.17158174  0.85392375    -0.38100
N1594       N  0.17527863  0.05839820  0.73227878    -0.38100
C1595       C  0.12660780  0.03362326  0.86303222    -0.04700
C1596       C  0.10387059  0.05544136  0.86137031    -0.01900
C1597       C  0.08148268  0.05699234  0.88372577     0.03100
C1598       C  0.07997855  0.03510625  0.90614276    -0.04700
C1599       C  0.09983506  0.01109483  0.90496156    -0.01800
C1600       C  0.12480173  0.01188645  0.88570690     0.03100
C1601       C  0.10274252  0.07572995  0.83629359     0.37800
C1602       C  0.09169962  0.98361953  0.91952618     0.37800
C1603       C  0.14890270  0.99081168  0.89015408     0.36200
C1604       C  0.05973120  0.08079637  0.88326832     0.36200
N1605       N  0.16825880  0.97419487  0.89385516    -0.38600
N1606       N  0.04231473  0.09969917  0.88277140    -0.38600
N1607       N  0.08428581  0.96116957  0.92956168    -0.38100
N1608       N  0.10178170  0.09189457  0.81629614    -0.38100
C1609       C  0.92522998  0.83977704  0.78510507    -0.04700
C1610       C  0.90906389  0.82509416  0.80798660    -0.01900
C1611       C  0.87926523  0.81519689  0.80269301     0.03100
C1612       C  0.86579700  0.81937155  0.77435026    -0.04700
C1613       C  0.88237353  0.83278220  0.75101210    -0.01800
C1614       C  0.91200549  0.84317748  0.75644233     0.03100
C1615       C  0.92339271  0.81932759  0.83668916     0.37800
C1616       C  0.86867284  0.83656560  0.72162759     0.37800
C1617       C  0.92863754  0.85786988  0.73270908     0.36200
C1618       C  0.86273244  0.79994336  0.82612225     0.36200
N1619       N  0.94198867  0.86944715  0.71376089    -0.38600
N1620       N  0.84955174  0.78772308  0.84475877    -0.38600
N1621       N  0.85777879  0.83946625  0.69817930    -0.38100
N1622       N  0.93479572  0.81458350  0.85955102    -0.38100
C1623       C  0.03620981  0.83586660  0.76858423    -0.04700
C1624       C  0.05080979  0.84921113  0.74397570    -0.01900
C1625       C  0.07764689  0.83700444  0.73258079     0.03100
C1626       C  0.09037665  0.81219440  0.74656130    -0.04700
C1627       C  0.07429392  0.79737593  0.76938400    -0.01800
C1628       C  0.04701397  0.80900937  0.78012860     0.03100
C1629       C  0.03882352  0.87601817  0.73111355     0.37800
C1630       C  0.08642454  0.77071584  0.78253044     0.37800
C1631       C  0.03062727  0.79400527  0.80384152     0.36200
C1632       C  0.09306600  0.85085647  0.70761734     0.36200
N1633       N  0.01738895  0.78203453  0.82261772    -0.38600
N1634       N  0.10536962  0.86180419  0.68762538    -0.38600
N1635       N  0.09595479  0.74942203  0.79306517    -0.38100
N1636       N  0.02939947  0.89746177  0.72080124    -0.38100
C1637       C  0.99381271  0.90374110  0.84670936    -0.04700
C1638       C  0.99421981  0.93442538  0.84206899    -0.01900
C1639       C  0.99577586  0.95413700  0.86676609     0.03100
C1640       C  0.99381080  0.94330869  0.89676410    -0.04700
C1641       C  0.99630258  0.91215169  0.90097337    -0.01800
C1642       C  0.99616708  0.89266557  0.87603461     0.03100
C1643       C  0.99233157  0.94572306  0.81170521     0.37800
C1644       C  0.00005940  0.89957770  0.93061650     0.37800
C1645       C  0.99814033  0.86095068  0.88048061     0.36200
C1646       C  0.00138744  0.98521411  0.86067132     0.36200
N1647       N  0.99987842  0.83568469  0.88395027    -0.38600
N1648       N  0.00655329  0.00984003  0.85564907    -0.38600
N1649       N  0.00315676  0.88929670  0.95412860    -0.38100
N1650       N  0.99053905  0.95466864  0.78750026    -0.38100
C1651       C  0.92856197  0.23481888  0.78350860    -0.04700
C1652       C  0.91538366  0.22469359  0.75623310    -0.01900
C1653       C  0.88645017  0.23461262  0.74737062     0.03100
C1654       C  0.87038913  0.25434845  0.76594427    -0.04700
C1655       C  0.88490810  0.26663186  0.79157810    -0.01800
C1656       C  0.91375390  0.25683993  0.80040162     0.03100
C1657       C  0.93098773  0.20308360  0.73794194     0.37800
C1658       C  0.87028828  0.28987659  0.80860648     0.37800
C1659       C  0.92822800  0.26944158  0.82694689     0.36200
C1660       C  0.87292769  0.22383650  0.71963257     0.36200
N1661       N  0.93981034  0.27944118  0.84811153    -0.38600
N1662       N  0.86236528  0.21534535  0.69732292    -0.38600
N1663       N  0.85876952  0.30864677  0.82196969    -0.38100
N1664       N  0.94360510  0.18593889  0.72336666    -0.38100
C1665       C  0.04073887  0.21924018  0.77653000    -0.04700
C1666       C  0.05026560  0.24907314  0.77341489    -0.01900
C1667       C  0.07897330  0.25592934  0.76150413     0.03100
C1668       C  0.09905725  0.23313945  0.75364813    -0.04700
C1669       C  0.08950590  0.20333240  0.75625502    -0.01800
C1670       C  0.06018861  0.19641287  0.76693511     0.03100
C1671       C  0.03143959  0.27287744  0.78442608     0.37800
C1672       C  0.11025221  0.17974906  0.74895200     0.37800
C1673       C  0.05013563  0.16579172  0.76812566     0.36200
C1674       C  0.08874118  0.28662269  0.75961562     0.36200
N1675       N  0.04214495  0.14134332  0.76894737    -0.38600
N1676       N  0.09634066  0.31115441  0.75831700    -0.38600
N1677       N  0.12673850  0.16082185  0.74332273    -0.38100
N1678       N  0.01644922  0.29183271  0.79326661    -0.38100
C1679       C  0.98097183  0.17428899  0.86179422    -0.04700
C1680       C  0.95854749  0.15180620  0.86450923    -0.01900
C1681       C  0.95664131  0.13490657  0.89084432     0.03100
C1682       C  0.97906049  0.13756095  0.91334053    -0.04700
C1683       C  0.00056651  0.16077860  0.91164992    -0.01800
C1684       C  0.00110150  0.17950676  0.88626552     0.03100
C1685       C  0.93801407  0.14491464  0.83985245     0.37800
C1686       C  0.02212718  0.16535699  0.93591701     0.37800
C1687       C  0.02199559  0.20444010  0.88569836     0.36200
C1688       C  0.93021260  0.11634192  0.89599237     0.36200
N1689       N  0.03861769  0.22439231  0.88531672    -0.38600
N1690       N  0.90864909  0.10248220  0.90080628    -0.38600
N1691       N  0.03913060  0.16912881  0.95543987    -0.38100
N1692       N  0.92159304  0.13926462  0.82027722    -0.38100
C1693       C  0.77157688  0.97921145  0.77856846    -0.04700
C1694       C  0.79196863  0.96407951  0.75970173    -0.01900
C1695       C  0.78513221  0.93511329  0.74948611     0.03100
C1696       C  0.75729449  0.92164745  0.75697286    -0.04700
C1697       C  0.73593430  0.93760577  0.77384840    -0.01800
C1698       C  0.74315781  0.96618566  0.78493336     0.03100
C1699       C  0.82045940  0.97802799  0.75164208     0.37800
C1700       C  0.70715336  0.92375769  0.78116754     0.37800
C1701       C  0.72217670  0.98124622  0.80454946     0.36200
C1702       C  0.80761760  0.91833027  0.73323909     0.36200
N1703       N  0.70536405  0.99300597  0.82034559    -0.38600
N1704       N  0.82566588  0.90480163  0.72058305    -0.38600
N1705       N  0.68430221  0.91243453  0.78682266    -0.38100
N1706       N  0.84311044  0.98927136  0.74513480    -0.38100
C1707       C  0.77297318  0.09049967  0.79238624    -0.04700
C1708       C  0.79459385  0.11038926  0.78036971    -0.01900
C1709       C  0.78691647  0.14000848  0.77480021     0.03100
C1710       C  0.75744311  0.15001601  0.78076653    -0.04700
C1711       C  0.73545056  0.12996830  0.79174122    -0.01800
C1712       C  0.74334814  0.10043960  0.79807160     0.03100
C1713       C  0.82499588  0.10058404  0.77392133     0.37800
C1714       C  0.70502955  0.14002734  0.79772631     0.37800
C1715       C  0.72155172  0.08090562  0.81225321     0.36200
C1716       C  0.80935613  0.16020269  0.76254985     0.36200
N1717       N  0.70417429  0.06554255  0.82389827    -0.38600
N1718       N  0.82719741  0.17636775  0.75283827    -0.38600
N1719       N  0.68072953  0.14799533  0.80247088    -0.38100
N1720       N  0.84939471  0.09326565  0.76868537    -0.38100
C1721       C  0.83778032  0.02746284  0.85639951    -0.04700
C1722       C  0.86805091  0.03453017  0.84977354    -0.01900
C1723       C  0.88995291  0.03618429  0.87283049     0.03100
C1724       C  0.88193126  0.02985956  0.90313771    -0.04700
C1725       C  0.85157646  0.02062938  0.90909691    -0.01800
C1726       C  0.82966795  0.02004371  0.88590505     0.03100
C1727       C  0.87687961  0.03972043  0.81889798     0.37800
C1728       C  0.84247992  0.01087012  0.93873248     0.37800
C1729       C  0.79847661  0.01211003  0.89239423     0.36200
C1730       C  0.92048350  0.04513335  0.86470919     0.36200
N1731       N  0.77358039  0.00582801  0.89743029    -0.38600
N1732       N  0.94470995  0.05243004  0.85808108    -0.38600
N1733       N  0.83496697  0.00299053  0.96224063    -0.38100
N1734       N  0.88445791  0.04349667  0.79439241    -0.38100
C1735       C  0.21309779  0.80908655  0.11020705    -0.04700
C1736       C  0.21761427  0.83883750  0.10181318    -0.01900
C1737       C  0.21104445  0.84778245  0.07240944     0.03100
C1738       C  0.19863200  0.82732445  0.05157338    -0.04700
C1739       C  0.19461395  0.79743412  0.05967584    -0.01800
C1740       C  0.20239978  0.78817319  0.08881562     0.03100
C1741       C  0.22912454  0.86033705  0.12342629     0.37800
C1742       C  0.18113833  0.77653602  0.03852179     0.37800
C1743       C  0.19814117  0.75740901  0.09698062     0.36200
C1744       C  0.21714953  0.87809328  0.06350403     0.36200
N1745       N  0.19467779  0.73275935  0.10303854    -0.38600
N1746       N  0.22211336  0.90220801  0.05633476    -0.38600
N1747       N  0.17025920  0.75986016  0.02173643    -0.38100
N1748       N  0.23805079  0.87755556  0.14071810    -0.38100
C1749       C  0.20472367  0.83137657  0.93948864    -0.04700
C1750       C  0.19520525  0.80439092  0.92625306    -0.01900
C1751       C  0.20582938  0.79630178  0.89768379     0.03100
C1752       C  0.22555233  0.81538370  0.88201277    -0.04700
C1753       C  0.23688559  0.84123085  0.89608457    -0.01800
C1754       C  0.22636509  0.84933603  0.92482975     0.03100
C1755       C  0.17340061  0.78556195  0.94138458     0.37800
C1756       C  0.25874703  0.85969024  0.88063743     0.37800
C1757       C  0.23728541  0.87639463  0.93901204     0.36200
C1758       C  0.19621080  0.76841832  0.88413890     0.36200
N1759       N  0.24616546  0.89799016  0.95022741    -0.38600
N1760       N  0.18877970  0.74606490  0.87345843    -0.38600
N1761       N  0.27643168  0.87416242  0.86831140    -0.38100
N1762       N  0.15589488  0.77048236  0.95321045    -0.38100
C1763       C  0.12856941  0.89155273  0.99532301    -0.04700
C1764       C  0.09913722  0.88362167  0.00445425    -0.01900
C1765       C  0.07647412  0.90525083  0.00675843     0.03100
C1766       C  0.08301125  0.93537425  0.99977887    -0.04700
C1767       C  0.11317847  0.94312285  0.99132110    -0.01800
C1768       C  0.13555378  0.92128195  0.98902566     0.03100
C1769       C  0.09224425  0.85302134  0.01177195     0.37800
C1770       C  0.12204213  0.97352279  0.98516111     0.37800
C1771       C  0.16633518  0.92962457  0.98119963     0.36200
C1772       C  0.04690265  0.89617116  0.01763935     0.36200
N1773       N  0.19085935  0.93627726  0.97503566    -0.38600
N1774       N  0.02339988  0.88870607  0.02628661    -0.38600
N1775       N  0.12954022  0.99762198  0.98027738    -0.38100
N1776       N  0.08685168  0.82866564  0.01776338    -0.38100
C1777       C  0.75921042  0.23669895  0.06436235    -0.04700
C1778       C  0.77847300  0.25646691  0.08018303    -0.01900
C1779       C  0.77162058  0.26493953  0.10989265     0.03100
C1780       C  0.74512513  0.25399499  0.12398194    -0.04700
C1781       C  0.72474160  0.23591567  0.10726644    -0.01800
C1782       C  0.73189506  0.22713478  0.07763890     0.03100
C1783       C  0.80576523  0.26757654  0.06595907     0.37800
C1784       C  0.69743169  0.22454468  0.12115613     0.37800
C1785       C  0.71209721  0.20667812  0.06149510     0.36200
C1786       C  0.79226103  0.28459757  0.12603597     0.36200
N1787       N  0.69644085  0.19028192  0.04855412    -0.38600
N1788       N  0.80899137  0.30015461  0.13871075    -0.38600
N1789       N  0.67562474  0.21542312  0.13216811    -0.38100
N1790       N  0.82749343  0.27624968  0.05444022    -0.38100
C1791       C  0.75019461  0.22714039  0.95208562    -0.04700
C1792       C  0.75221253  0.25710345  0.94311851    -0.01900
C1793       C  0.74122707  0.26572509  0.91471946     0.03100
C1794       C  0.72939268  0.24435615  0.89448900    -0.04700
C1795       C  0.72652917  0.21465317  0.90366034    -0.01800
C1796       C  0.73631796  0.20617496  0.93256009     0.03100
C1797       C  0.76778324  0.27871499  0.96204099     0.37800
C1798       C  0.71437027  0.19262253  0.88294907     0.37800
C1799       C  0.73255367  0.17573591  0.94200028     0.36200
C1800       C  0.74386507  0.29637081  0.90546328     0.36200
N1801       N  0.72957593  0.15143686  0.94952366    -0.38600
N1802       N  0.74583818  0.32076571  0.89795248    -0.38600
N1803       N  0.70475034  0.17494716  0.86647398    -0.38100
N1804       N  0.78045280  0.29587354  0.97701753    -0.38100
C1805       C  0.83017413  0.17043932  0.00887504    -0.04700
C1806       C  0.83207870  0.14784626  0.03078007    -0.01900
C1807       C  0.85805389  0.13009302  0.03275043     0.03100
C1808       C  0.88078993  0.13182380  0.01079221    -0.04700
C1809       C  0.87962931  0.15483860  0.98951548    -0.01800
C1810       C  0.85483022  0.17442178  0.98896527     0.03100
C1811       C  0.80724404  0.14220195  0.05120694     0.37800
C1812       C  0.90439674  0.15917185  0.96878852     0.37800
C1813       C  0.85545404  0.19937924  0.96866270     0.36200
C1814       C  0.86329042  0.11271725  0.05944210     0.36200
N1815       N  0.85598700  0.21932116  0.95252435    -0.38600
N1816       N  0.86824509  0.09997144  0.08130863    -0.38600
N1817       N  0.92421095  0.16333667  0.95244974    -0.38100
N1818       N  0.78759176  0.13756610  0.06764549    -0.38100
C1819       C  0.78612007  0.81164753  0.05783898    -0.04700
C1820       C  0.75534608  0.81455643  0.06567586    -0.01900
C1821       C  0.74593311  0.80936662  0.09537317     0.03100
C1822       C  0.76738987  0.80241646  0.11774409    -0.04700
C1823       C  0.79813139  0.79933772  0.10983612    -0.01800
C1824       C  0.80731613  0.80325515  0.07986872     0.03100
C1825       C  0.73342855  0.82421281  0.04358433     0.37800
C1826       C  0.82037109  0.79170234  0.13241601     0.37800
C1827       C  0.83852914  0.79814227  0.07154090     0.36200
C1828       C  0.71425369  0.81240846  0.10298672     0.36200
N1829       N  0.86335788  0.79391459  0.06480505    -0.38600
N1830       N  0.68888249  0.81490009  0.10857304    -0.38600
N1831       N  0.83824263  0.78581881  0.15037172    -0.38100
N1832       N  0.71574796  0.83196431  0.02620377    -0.38100
C1833       C  0.76326162  0.78477277  0.88729773    -0.04700
C1834       C  0.78691459  0.77011292  0.90209589    -0.01900
C1835       C  0.79523469  0.77888922  0.93147717     0.03100
C1836       C  0.77967322  0.80206024  0.94589384    -0.04700
C1837       C  0.75397542  0.81433098  0.93226215    -0.01800
C1838       C  0.74583261  0.80578957  0.90294160     0.03100
C1839       C  0.80365413  0.74732933  0.88652317     0.37800
C1840       C  0.73656883  0.83654638  0.94799851     0.37800
C1841       C  0.72001167  0.81933865  0.88849019     0.36200
C1842       C  0.82049788  0.76502786  0.94643316     0.36200
N1843       N  0.69943860  0.83021474  0.87705379    -0.38600
N1844       N  0.84057326  0.75391043  0.95848195    -0.38600
N1845       N  0.72251157  0.85422802  0.96040274    -0.38100
N1846       N  0.81694653  0.72913007  0.87403021    -0.38100
C1847       C  0.88132635  0.93330426  0.99179474    -0.04700
C1848       C  0.85522670  0.93335606  0.01000178    -0.01900
C1849       C  0.83515666  0.90889548  0.00980966     0.03100
C1850       C  0.84186517  0.88320998  0.99284849    -0.04700
C1851       C  0.86737865  0.88354911  0.97377588    -0.01800
C1852       C  0.88627009  0.90886313  0.97246128     0.03100
C1853       C  0.84948155  0.95781733  0.03023561     0.37800
C1854       C  0.87509236  0.85751523  0.95626556     0.37800
C1855       C  0.91030863  0.90998621  0.95045158     0.36200
C1856       C  0.80746424  0.91034830  0.02714480     0.36200
N1857       N  0.92909768  0.91089876  0.93250218    -0.38600
N1858       N  0.78546475  0.91149363  0.04105392    -0.38600
N1859       N  0.88123704  0.83680944  0.94222711    -0.38100
N1860       N  0.84451325  0.97703745  0.04665486    -0.38100
loop_ 
_geom_bond_atom_site_label_1 
_geom_bond_atom_site_label_2 
_geom_bond_distance 
_geom_bond_site_symmetry_2 
_ccdc_geom_bond_type 
C1            C2   1.403       .  A
C1            C6   1.402       .  A
C1         C1819   1.485       .  S
C2            C3   1.404   1_554  A
C2            H7   1.084       .  S
C3            C4   1.402       .  A
C3         C1850   1.496       .  S
C4            C5   1.402       .  A
C4            H8   1.084       .  S
C5            C6   1.399   1_556  A
C5         C1836   1.476       .  S
C6            H9   1.084       .  S
C10          C11   1.402       .  A
C10          C15   1.401       .  A
C10        C1777   1.489       .  S
C11          C12   1.405       .  A
C11          H16   1.083       .  S
C12          C13   1.411   1_554  A
C12        C1805   1.508       .  S
C13          C14   1.411       .  A
C13          H17   1.083       .  S
C14          C15   1.405   1_556  A
C14        C1791   1.497       .  S
C15          H18   1.084       .  S
C19          C20   1.399       .  A
C19          C24   1.401   1_554  A
C19        C1738   1.478       .  S
C20          C21   1.396   1_554  A
C20          H25   1.085       .  S
C21          C22   1.403       .  A
C21        C1763   1.484       .  S
C22          C23   1.404       .  A
C22          H26   1.084       .  S
C23          C24   1.401       .  A
C23        C1749   1.480       .  S
C24          H27   1.084       .  S
C28          C29   1.402       .  A
C28          C33   1.409       .  A
C28        C1707   1.491       .  S
C29          C30   1.398       .  A
C29          H34   1.084       .  S
C30          C31   1.400       .  A
C30        C1721   1.484       .  S
C31          C32   1.405       .  A
C31          H35   1.084   1_545  S
C32          C33   1.409       .  A
C32        C1693   1.490   1_545  S
C33          H36   1.083       .  S
C37          C38   1.402       .  A
C37          C42   1.404       .  A
C37        C1651   1.494       .  S
C38          C39   1.406   1_655  A
C38          H43   1.084       .  S
C39          C40   1.410       .  A
C39        C1665   1.498       .  S
C40          C41   1.410   1_455  A
C40          H44   1.083       .  S
C41          C42   1.407       .  A
C41        C1679   1.504       .  S
C42          H45   1.084       .  S
C46          C47   1.401       .  A
C46          C51   1.399       .  A
C46        C1609   1.479       .  S
C47          C48   1.398       .  A
C47          H52   1.084       .  S
C48          C49   1.403   1_655  A
C48        C1637   1.483       .  S
C49          C50   1.405       .  A
C49          H53   1.084       .  S
C50          C51   1.397   1_455  A
C50        C1623   1.477       .  S
C51          H54   1.084       .  S
C55          C56   1.402       .  A
C55          C60   1.401       .  A
C55        C1581   1.483       .  S
C56          C57   1.400       .  A
C56          H61   1.083       .  S
C57          C58   1.401       .  A
C57        C1595   1.490       .  S
C58          C59   1.399       .  A
C58          H62   1.084   1_545  S
C59          C60   1.400       .  A
C59        C1567   1.480   1_545  S
C60          H63   1.084       .  S
C64          C65   1.406       .  A
C64          C69   1.399       .  A
C64        C1539   1.488       .  S
C65          C66   1.408       .  A
C65          H70   1.084       .  S
C66          C67   1.410   1_655  A
C66        C1553   1.507       .  S
C67          C68   1.410       .  A
C67          H71   1.083       .  S
C68          C69   1.401   1_455  A
C68        C1525   1.492       .  S
C69          H72   1.084       .  S
C73          C74   1.399       .  A
C73          C78   1.406       .  A
C73        C1497   1.483       .  S
C74          C75   1.398       .  A
C74          H79   1.084       .  S
C75          C76   1.399   1_545  A
C75        C1511   1.482       .  S
C76          C77   1.402   1_565  A
C76          H80   1.084       .  S
C77          C78   1.406       .  A
C77        C1483   1.482   1_545  S
C78          H81   1.083       .  S
C82          C83   1.403       .  A
C82          C87   1.401       .  A
C82        C1455   1.481       .  S
C83          C84   1.401       .  A
C83          H88   1.084       .  S
C84          C85   1.403   1_655  A
C84        C1441   1.492       .  S
C85          C86   1.408       .  A
C85          H89   1.084       .  S
C86          C87   1.406   1_455  A
C86        C1469   1.494       .  S
C87          H90   1.084       .  S
Zr91         O92   2.443       .  S
Zr91         O93   2.438       .  S
Zr91         O94   2.422       .  S
Zr91         O97   2.395       .  S
Zr91         O99   2.377       .  S
Zr91        O100   2.379       .  S
Zr91        O101   2.403       .  S
Zr91        O102   2.399       .  S
O92         H148   0.990       .  S
O92         H156   0.991       .  S
O93         C113   1.283       .  A
O94         C115   1.280       .  A
O95        Zr105   2.438       .  S
O95         C114   1.284       .  A
O96        Zr104   2.459       .  S
O96         C115   1.288       .  A
O97         C114   1.277       .  A
O98        Zr106   2.412       .  S
O98         C113   1.280       .  A
O99        Zr104   2.404       .  S
O99        Zr106   2.388       .  S
O100       Zr105   2.397       .  S
O100       Zr106   2.377       .  S
O100        H135   0.966       .  S
O101       Zr104   2.400       .  S
O101       Zr121   2.387       .  S
O101        H138   0.964       .  S
O102       Zr105   2.392       .  S
O102       Zr121   2.396       .  S
Zr103       O128   2.441       .  S
Zr103       O122   2.430       .  S
Zr103       O130   2.416       .  S
Zr103       O118   2.415       .  S
Zr103       O109   2.395       .  S
Zr103       O110   2.401       .  S
Zr103       O111   2.379       .  S
Zr103       O112   2.376       .  S
Zr104       O123   2.437       .  S
Zr104       O116   2.434       .  S
Zr104       O117   2.447       .  S
Zr104       O110   2.406       .  S
Zr104       O111   2.404       .  S
Zr105       O107   2.437       .  S
Zr105       O129   2.439       .  S
Zr105       O131   2.446       .  S
Zr105       O109   2.390       .  S
Zr105       O112   2.393       .  S
Zr106       O132   2.434       .  S
Zr106       O133   2.435       .  S
Zr106       O108   2.435       .  S
Zr106       O109   2.392       .  S
Zr106       O110   2.385       .  S
O107        H144   0.990       .  S
O108        H139   0.990       .  S
O108        H153   0.989       .  S
O110        H136   0.965       .  S
O111       Zr121   2.376       .  S
O112       Zr121   2.378       .  S
O112        H137   0.966       .  S
C113       C1399   1.484       .  S
C114       C1371   1.472       .  S
C115       C1385   1.485       .  S
O116        H152   0.990       .  S
O117        C119   1.286       .  A
O118        C119   1.280       .  A
C119       C1416   1.475       .  S
O120       Zr121   2.439       .  S
O120        H149   0.990       .  S
Zr121       O124   2.438       .  S
Zr121       O125   2.436       .  S
Zr121       O126   2.428       .  S
O122        C127   1.284       .  A
O123        H140   0.990       .  S
O123        H155   0.990       .  S
O124        H141   0.990       .  S
O125        H145   0.989       .  S
O125        H154   0.990       .  S
O126        C127   1.283       .  A
C127       C1430   1.488       .  S
O128        H147   0.990       .  S
O128        H151   0.990       .  S
O129        H143   0.990       .  S
O129        H150   0.990       .  S
O130        C134   1.281       .  A
O131        C134   1.286       .  A
O132        H142   0.989       .  S
O133        H146   0.990       .  S
C134       C1472   1.480       .  S
C157        C158   1.407       .  A
C157        C162   1.402       .  A
C157       C1427   1.492       .  S
C158        C159   1.405   1_545  A
C158        H163   1.084       .  S
C159        C160   1.406       .  A
C159       C1360   1.491       .  S
C160        C161   1.407   1_565  A
C160        H164   1.084       .  S
C161        C162   1.401       .  A
C161       C1346   1.498       .  S
C162        H165   1.084       .  S
Zr166       O167   2.443       .  S
Zr166       O168   2.423       .  S
Zr166       O169   2.405       .  S
Zr166       O172   2.409       .  S
Zr166       O174   2.378       .  S
Zr166       O175   2.378       .  S
Zr166       O176   2.404       .  S
Zr166       O177   2.393       .  S
O167        H223   0.990       .  S
O167        H231   0.990       .  S
O168        C188   1.280       .  A
O169        C190   1.278       .  A
O170       Zr180   2.458       .  S
O170        C189   1.289       .  A
O171       Zr179   2.460       .  S
O171        C190   1.288       .  A
O172        C189   1.279       .  A
O173       Zr181   2.408       .  S
O173        C188   1.278       .  A
O174       Zr179   2.407       .  S
O174       Zr181   2.382       .  S
O175       Zr180   2.397       .  S
O175       Zr181   2.377       .  S
O175        H210   0.967       .  S
O176       Zr179   2.408       .  S
O176       Zr196   2.391       .  S
O176        H213   0.965       .  S
O177       Zr180   2.397       .  S
O177       Zr196   2.388       .  S
Zr178       O203   2.444       .  S
Zr178       O197   2.424       .  S
Zr178       O205   2.415       .  S
Zr178       O193   2.432       .  S
Zr178       O184   2.398       .  S
Zr178       O185   2.402       .  S
Zr178       O186   2.379       .  S
Zr178       O187   2.385       .  S
Zr179       O198   2.437       .  S
Zr179       O191   2.435       .  S
Zr179       O192   2.465       .  S
Zr179       O185   2.407       .  S
Zr179       O186   2.403       .  S
Zr180       O182   2.437       .  S
Zr180       O204   2.435       .  S
Zr180       O206   2.456       .  S
Zr180       O184   2.396       .  S
Zr180       O187   2.400       .  S
Zr181       O207   2.435       .  S
Zr181       O208   2.435       .  S
Zr181       O183   2.438       .  S
Zr181       O184   2.389       .  S
Zr181       O185   2.386       .  S
O182        H219   0.990       .  S
O183        H214   0.990       .  S
O183        H228   0.990       .  S
O185        H211   0.964       .  S
O186       Zr196   2.388       .  S
O187       Zr196   2.380       .  S
O187        H212   0.966       .  S
C188       C1304   1.473       .  S
C189       C1315   1.485       .  S
C190       C1329   1.482       .  S
O191        H227   0.990       .  S
O192        C194   1.289       .  A
O193        C194   1.282       .  A
C194       C1357   1.491       .  S
O195       Zr196   2.434       .  S
O195        H224   0.990       .  S
Zr196       O199   2.435       .  S
Zr196       O200   2.436       .  S
Zr196       O201   2.412       .  S
O197        C202   1.282       .  A
O198        H215   0.990       .  S
O198        H230   0.990       .  S
O199        H216   0.990       .  S
O200        H220   0.989       .  S
O200        H229   0.989       .  S
O201        C202   1.279       .  A
C202       C1735   1.475       .  S
O203        H222   0.991       .  S
O203        H226   0.991       .  S
O204        H218   0.990       .  S
O204        H225   0.990       .  S
O205        C209   1.280       .  A
O206        C209   1.288       .  A
O207        H217   0.990       .  S
O208        H221   0.990       .  S
C209       C1528   1.482       .  S
Zr232       O233   2.444       .  S
Zr232       O234   2.433       .  S
Zr232       O235   2.419       .  S
Zr232       O238   2.422       .  S
Zr232       O240   2.377       .  S
Zr232       O241   2.381       .  S
Zr232       O242   2.409       .  S
Zr232       O243   2.394       .  S
O233        H289   0.991       .  S
O233        H297   0.990       .  S
O234        C254   1.281       .  A
O235        C256   1.280       .  A
O236       Zr246   2.449       .  S
O236        C255   1.288       .  A
O237       Zr245   2.439       .  S
O237        C256   1.285       .  A
O238        C255   1.283       .  A
O239       Zr247   2.430       .  S
O239        C254   1.281       .  A
O240       Zr245   2.405       .  S
O240       Zr247   2.380       .  S
O241       Zr246   2.398       .  S
O241       Zr247   2.376       .  S
O241        H276   0.966       .  S
O242       Zr245   2.409       .  S
O242       Zr262   2.393       .  S
O242        H279   0.965       .  S
O243       Zr246   2.394       .  S
O243       Zr262   2.389       .  S
Zr244       O269   2.442       .  S
Zr244       O263   2.449       .  S
Zr244       O271   2.424       .  S
Zr244       O259   2.411       .  S
Zr244       O250   2.408       .  S
Zr244       O251   2.406       .  S
Zr244       O252   2.373       .  S
Zr244       O253   2.374       .  S
Zr245       O264   2.436       .  S
Zr245       O257   2.434       .  S
Zr245       O258   2.456       .  S
Zr245       O251   2.396       .  S
Zr245       O252   2.398       .  S
Zr246       O248   2.434       .  S
Zr246       O270   2.436       .  S
Zr246       O272   2.448       .  S
Zr246       O250   2.398       .  S
Zr246       O253   2.400       .  S
Zr247       O273   2.438       .  S
Zr247       O274   2.434       .  S
Zr247       O249   2.438       .  S
Zr247       O250   2.403       .  S
Zr247       O251   2.395       .  S
O248        H285   0.990       .  S
O249        H280   0.990       .  S
O249        H294   0.990       .  S
O251        H277   0.965       .  S
O252       Zr262   2.383       .  S
O253       Zr262   2.380       .  S
O253        H278   0.966       .  S
C254       C1500   1.481       .  S
C255       C1780   1.491       .  S
C256       C1458   1.479       .  S
O257        H293   0.990       .  S
O258        C260   1.288       .  A
O259        C260   1.281       .  A
C260       C1259   1.484       .  S
O261       Zr262   2.434       .  S
O261        H290   0.990       .  S
Zr262       O265   2.435       .  S
Zr262       O266   2.438       .  S
Zr262       O267   2.416       .  S
O263        C268   1.286       .  A
O264        H281   0.990       .  S
O264        H296   0.990       .  S
O265        H282   0.990       .  S
O266        H286   0.989       .  S
O266        H295   0.990       .  S
O267        C268   1.280       .  A
C268       C1273   1.490       .  S
O269        H288   0.991       .  S
O269        H292   0.990       .  S
O270        H284   0.990       .  S
O270        H291   0.990       .  S
O271        C275   1.281       .  A
O272        C275   1.286       .  A
O273        H283   0.990       .  S
O274        H287   0.990       .  S
C275       C1287   1.484       .  S
Zr298       O299   2.443       .  S
Zr298       O300   2.435       .  S
Zr298       O301   2.434       .  S
Zr298       O304   2.411       .  S
Zr298       O306   2.375       .  S
Zr298       O307   2.379       .  S
Zr298       O308   2.405       .  S
Zr298       O309   2.400       .  S
O299        H355   0.990       .  S
O299        H363   0.991       .  S
O300        C320   1.283       .  A
O301        C322   1.282       .  A
O302       Zr312   2.454       .  S
O302        C321   1.288       .  A
O303       Zr311   2.448       .  S
O303        C322   1.285       .  A
O304        C321   1.281       .  A
O305       Zr313   2.408       .  S
O305        C320   1.278       .  A
O306       Zr311   2.402       .  S
O306       Zr313   2.380       .  S
O307       Zr312   2.389       .  S
O307       Zr313   2.382       .  S
O307        H342   0.965       .  S
O308       Zr311   2.405       .  S
O308       Zr328   2.392       .  S
O308        H345   0.966       .  S
O309       Zr312   2.392       .  S
O309       Zr328   2.390       .  S
Zr310       O335   2.444       .  S
Zr310       O329   2.432       .  S
Zr310       O337   2.419       .  S
Zr310       O325   2.419       .  S
Zr310       O316   2.395       .  S
Zr310       O317   2.408       .  S
Zr310       O318   2.378       .  S
Zr310       O319   2.382       .  S
Zr311       O330   2.437       .  S
Zr311       O323   2.437       .  S
Zr311       O324   2.456       .  S
Zr311       O317   2.405       .  S
Zr311       O318   2.401       .  S
Zr312       O314   2.435       .  S
Zr312       O336   2.437       .  S
Zr312       O338   2.437       .  S
Zr312       O316   2.398       .  S
Zr312       O319   2.401       .  S
Zr313       O339   2.434       .  S
Zr313       O340   2.435       .  S
Zr313       O315   2.439       .  S
Zr313       O316   2.393       .  S
Zr313       O317   2.386       .  S
O314        H351   0.990       .  S
O315        H346   0.990       .  S
O315        H360   0.990       .  S
O317        H343   0.965       .  S
O318       Zr328   2.381       .  S
O319       Zr328   2.383       .  S
O319        H344   0.966       .  S
C320       C1220   1.469       .  S
C321       C1231   1.488       .  S
C322       C1245   1.483       .  S
O323        H359   0.990       .  S
O324        C326   1.288       .  A
O325        C326   1.281       .  A
C326       C1542   1.488       .  S
O327       Zr328   2.436       .  S
O327        H356   0.990       .  S
Zr328       O331   2.435       .  S
Zr328       O332   2.436       .  S
Zr328       O333   2.415       .  S
O329        C334   1.282       .  A
O330        H347   0.990       .  S
O330        H362   0.990       .  S
O331        H348   0.990       .  S
O332        H352   0.990       .  S
O332        H361   0.989       .  S
O333        C334   1.279       .  A
C334       C1822   1.483       .  S
O335        H354   0.990       .  S
O335        H358   0.990       .  S
O336        H350   0.990       .  S
O336        H357   0.989       .  S
O337        C341   1.282       .  A
O338        C341   1.284       .  A
O339        H349   0.990       .  S
O340        H353   0.990       .  S
C341       C1486   1.481       .  S
C364        C365   1.404       .  A
C364        C369   1.397       .  A
C364       C1413   1.480       .  S
C365        C366   1.408       .  A
C365        H370   1.083       .  S
C366        C367   1.411   1_554  A
C366       C1192   1.509       .  S
C367        C368   1.408       .  A
C367        H371   1.083       .  S
C368        C369   1.398   1_556  A
C368       C1203   1.489       .  S
C369        H372   1.084       .  S
Zr373       O374   2.444       .  S
Zr373       O375   2.421       .  S
Zr373       O376   2.416       .  S
Zr373       O379   2.411       .  S
Zr373       O381   2.378       .  S
Zr373       O382   2.376       .  S
Zr373       O383   2.405       .  S
Zr373       O384   2.394       .  S
O374        H430   0.991       .  S
O374        H438   0.990       .  S
O375        C395   1.280       .  A
O376        C397   1.278       .  A
O377       Zr387   2.456       .  S
O377        C396   1.289       .  A
O378       Zr386   2.465       .  S
O378        C397   1.290       .  A
O379        C396   1.280       .  A
O380       Zr388   2.417       .  S
O380        C395   1.279       .  A
O381       Zr386   2.405       .  S
O381       Zr388   2.375       .  S
O382       Zr387   2.401       .  S
O382       Zr388   2.382       .  S
O382        H417   0.965       .  S
O383       Zr386   2.407       .  S
O383       Zr403   2.387       .  S
O383        H420   0.964       .  S
O384       Zr387   2.402       .  S
O384       Zr403   2.392       .  S
Zr385       O410   2.444       .  S
Zr385       O404   2.435       .  S
Zr385       O412   2.408       .  S
Zr385       O400   2.417       .  S
Zr385       O391   2.394       .  S
Zr385       O392   2.407       .  S
Zr385       O393   2.378       .  S
Zr385       O394   2.379       .  S
Zr386       O405   2.435       .  S
Zr386       O398   2.435       .  S
Zr386       O399   2.468       .  S
Zr386       O392   2.406       .  S
Zr386       O393   2.401       .  S
Zr387       O389   2.435       .  S
Zr387       O411   2.435       .  S
Zr387       O413   2.474       .  S
Zr387       O391   2.389       .  S
Zr387       O394   2.401       .  S
Zr388       O414   2.436       .  S
Zr388       O415   2.434       .  S
Zr388       O390   2.438       .  S
Zr388       O391   2.394       .  S
Zr388       O392   2.394       .  S
O389        H426   0.990       .  S
O390        H421   0.989       .  S
O390        H435   0.990       .  S
O392        H418   0.964       .  S
O393       Zr403   2.382       .  S
O394       Zr403   2.390       .  S
O394        H419   0.966       .  S
C395       C1584   1.475       .  S
C396       C1206   1.487       .  S
C397       C1668   1.483       .  S
O398        H434   0.990       .  S
O399        C401   1.290       .  A
O400        C401   1.278       .  A
C401       C1147   1.484       .  S
O402       Zr403   2.437       .  S
O402        H431   0.990       .  S
Zr403       O406   2.436       .  S
Zr403       O407   2.437       .  S
Zr403       O408   2.408       .  S
O404        C409   1.283       .  A
O405        H422   0.990       .  S
O405        H437   0.989       .  S
O406        H423   0.990       .  S
O407        H427   0.990       .  S
O407        H436   0.990       .  S
O408        C409   1.277       .  A
C409       C1161   1.474       .  S
O410        H429   0.991       .  S
O410        H433   0.990       .  S
O411        H425   0.990       .  S
O411        H432   0.990       .  S
O412        C416   1.279       .  A
O413        C416   1.292       .  A
O414        H424   0.990       .  S
O415        H428   0.990       .  S
C416       C1175   1.492       .  S
Zr439       O440   2.443       .  S
Zr439       O441   2.427       .  S
Zr439       O442   2.418       .  S
Zr439       O445   2.400       .  S
Zr439       O447   2.371       .  S
Zr439       O448   2.382       .  S
Zr439       O449   2.396       .  S
Zr439       O450   2.396       .  S
O440        H496   0.990       .  S
O440        H504   0.991       .  S
O441        C461   1.282       .  A
O442        C463   1.279       .  A
O443       Zr453   2.442       .  S
O443        C462   1.285       .  A
O444       Zr452   2.436       .  S
O444        C463   1.282       .  A
O445        C462   1.278       .  A
O446       Zr454   2.407       .  S
O446        C461   1.278       .  A
O447       Zr452   2.394       .  S
O447       Zr454   2.383       .  S
O448       Zr453   2.400       .  S
O448       Zr454   2.382       .  S
O448        H483   0.967       .  S
O449       Zr452   2.396       .  S
O449       Zr469   2.390       .  S
O449        H486   0.965       .  S
O450       Zr453   2.390       .  S
O450       Zr469   2.388       .  S
Zr451       O476   2.442       .  S
Zr451       O470   2.420       .  S
Zr451       O478   2.415       .  S
Zr451       O466   2.421       .  S
Zr451       O457   2.395       .  S
Zr451       O458   2.401       .  S
Zr451       O459   2.379       .  S
Zr451       O460   2.379       .  S
Zr452       O471   2.436       .  S
Zr452       O464   2.436       .  S
Zr452       O465   2.419       .  S
Zr452       O458   2.407       .  S
Zr452       O459   2.403       .  S
Zr453       O455   2.435       .  S
Zr453       O477   2.435       .  S
Zr453       O479   2.445       .  S
Zr453       O457   2.394       .  S
Zr453       O460   2.395       .  S
Zr454       O480   2.438       .  S
Zr454       O481   2.435       .  S
Zr454       O456   2.439       .  S
Zr454       O457   2.390       .  S
Zr454       O458   2.384       .  S
O455        H492   0.990       .  S
O456        H487   0.990       .  S
O456        H501   0.990       .  S
O458        H484   0.964       .  S
O459       Zr469   2.383       .  S
O460       Zr469   2.379       .  S
O460        H485   0.966       .  S
C461       C1570   1.472       .  S
C462       C1626   1.472       .  S
C463       C1752   1.473       .  S
O464        H500   0.990       .  S
O465        C467   1.280       .  A
O466        C467   1.282       .  A
C467       C1122   1.467       .  S
O468       Zr469   2.434       .  S
O468        H497   0.990       .  S
Zr469       O472   2.435       .  S
Zr469       O473   2.437       .  S
Zr469       O474   2.417       .  S
O470        C475   1.280       .  A
O471        H488   0.990       .  S
O471        H503   0.990       .  S
O472        H489   0.990       .  S
O473        H493   0.990       .  S
O473        H502   0.989       .  S
O474        C475   1.280       .  A
C475       C1136   1.473       .  S
O476        H495   0.990       .  S
O476        H499   0.991       .  S
O477        H491   0.990       .  S
O477        H498   0.990       .  S
O478        C482   1.281       .  A
O479        C482   1.286       .  A
O480        H490   0.990       .  S
O481        H494   0.990       .  S
C482       C1105   1.481       .  S
Zr505       O506   2.443       .  S
Zr505       O507   2.436       .  S
Zr505       O508   2.418       .  S
Zr505       O511   2.418       .  S
Zr505       O513   2.378       .  S
Zr505       O514   2.377       .  S
Zr505       O515   2.407       .  S
Zr505       O516   2.399       .  S
O506        H562   0.991       .  S
O506        H570   0.990       .  S
O507        C527   1.284       .  A
O508        C529   1.279       .  A
O509       Zr519   2.459       .  S
O509        C528   1.289       .  A
O510       Zr518   2.457       .  S
O510        C529   1.288       .  A
O511        C528   1.282       .  A
O512       Zr520   2.420       .  S
O512        C527   1.280       .  A
O513       Zr518   2.404       .  S
O513       Zr520   2.380       .  S
O514       Zr519   2.397       .  S
O514       Zr520   2.384       .  S
O514        H549   0.966       .  S
O515       Zr518   2.408       .  S
O515       Zr535   2.400       .  S
O515        H552   0.966       .  S
O516       Zr519   2.393       .  S
O516       Zr535   2.397       .  S
Zr517       O542   2.441       .  S
Zr517       O536   2.421       .  S
Zr517       O544   2.421       .  S
Zr517       O532   2.423       .  S
Zr517       O523   2.401       .  S
Zr517       O524   2.406       .  S
Zr517       O525   2.377       .  S
Zr517       O526   2.377       .  S
Zr518       O537   2.436       .  S
Zr518       O530   2.436       .  S
Zr518       O531   2.468       .  S
Zr518       O524   2.407       .  S
Zr518       O525   2.405       .  S
Zr519       O521   2.435       .  S
Zr519       O543   2.437       .  S
Zr519       O545   2.451       .  S
Zr519       O523   2.398       .  S
Zr519       O526   2.402       .  S
Zr520       O546   2.435       .  S
Zr520       O547   2.435       .  S
Zr520       O522   2.437       .  S
Zr520       O523   2.397       .  S
Zr520       O524   2.386       .  S
O521        H558   0.990       .  S
O522        H553   0.990       .  S
O522        H567   0.990       .  S
O524        H550   0.965       .  S
O525       Zr535   2.380       .  S
O526       Zr535   2.379       .  S
O526        H551   0.967       .  S
C527       C1710   1.484       .  S
C528       C1654   1.490       .  S
C529       C1794   1.482       .  S
O530        H566   0.990       .  S
O531        C533   1.290       .  A
O532        C533   1.282       .  A
C533       C1080   1.492       .  S
O534       Zr535   2.436       .  S
O534        H563   0.990       .  S
Zr535       O538   2.436       .  S
Zr535       O539   2.439       .  S
Zr535       O540   2.429       .  S
O536        C541   1.280       .  A
O537        H554   0.990       .  S
O537        H569   0.990       .  S
O538        H555   0.990       .  S
O539        H559   0.990       .  S
O539        H568   0.989       .  S
O540        C541   1.281       .  A
C541       C1091   1.481       .  S
O542        H561   0.989       .  S
O542        H565   0.991       .  S
O543        H557   0.990       .  S
O543        H564   0.990       .  S
O544        C548   1.281       .  A
O545        C548   1.287       .  A
O546        H556   0.989       .  S
O547        H560   0.990       .  S
C548       C1063   1.483       .  S
Zr571       O572   2.442       .  S
Zr571       O573   2.422       .  S
Zr571       O574   2.423       .  S
Zr571       O577   2.410       .  S
Zr571       O579   2.376       .  S
Zr571       O580   2.379       .  S
Zr571       O581   2.396       .  S
Zr571       O582   2.398       .  S
O572        H628   0.990       .  S
O572        H636   0.990       .  S
O573        C593   1.281       .  A
O574        C595   1.281       .  A
O575       Zr585   2.452       .  S
O575        C594   1.287       .  A
O576       Zr584   2.425       .  S
O576        C595   1.281       .  A
O577        C594   1.279       .  A
O578       Zr586   2.402       .  S
O578        C593   1.277       .  A
O579       Zr584   2.404       .  S
O579       Zr586   2.385       .  S
O580       Zr585   2.393       .  S
O580       Zr586   2.376       .  S
O580        H615   0.965       .  S
O581       Zr584   2.401       .  S
O581       Zr601   2.385       .  S
O581        H618   0.964       .  S
O582       Zr585   2.389       .  S
O582       Zr601   2.389       .  S
Zr583       O608   2.444       .  S
Zr583       O602   2.414       .  S
Zr583       O610   2.413       .  S
Zr583       O598   2.431       .  S
Zr583       O589   2.396       .  S
Zr583       O590   2.395       .  S
Zr583       O591   2.369       .  S
Zr583       O592   2.390       .  S
Zr584       O603   2.437       .  S
Zr584       O596   2.434       .  S
Zr584       O597   2.434       .  S
Zr584       O590   2.397       .  S
Zr584       O591   2.391       .  S
Zr585       O587   2.435       .  S
Zr585       O609   2.439       .  S
Zr585       O611   2.434       .  S
Zr585       O589   2.403       .  S
Zr585       O592   2.405       .  S
Zr586       O612   2.435       .  S
Zr586       O613   2.433       .  S
Zr586       O588   2.437       .  S
Zr586       O589   2.386       .  S
Zr586       O590   2.382       .  S
O587        H624   0.990       .  S
O588        H619   0.990       .  S
O588        H633   0.990       .  S
O590        H616   0.965       .  S
O591       Zr601   2.381       .  S
O592       Zr601   2.384       .  S
O592        H617   0.966       .  S
C593       C1612   1.469       .  S
C594       C1696   1.479       .  S
C595       C1833   1.471       .  S
O596        H632   0.990       .  S
O597        C599   1.283       .  A
O598        C599   1.284       .  A
C599       C1035   1.482       .  S
O600       Zr601   2.435       .  S
O600        H629   0.990       .  S
Zr601       O604   2.434       .  S
Zr601       O605   2.438       .  S
Zr601       O606   2.412       .  S
O602        C607   1.278       .  A
O603        H620   0.990       .  S
O603        H635   0.990       .  S
O604        H621   0.990       .  S
O605        H625   0.990       .  S
O605        H634   0.989       .  S
O606        C607   1.278       .  A
C607       C1052   1.469       .  S
O608        H627   0.991       .  S
O608        H631   0.991       .  S
O609        H623   0.990       .  S
O609        H630   0.990       .  S
O610        C614   1.279       .  A
O611        C614   1.283       .  A
O612        H622   0.990       .  S
O613        H626   0.990       .  S
C614       C1021   1.475       .  S
C637        C638   1.399       .  A
C637        C642   1.399       .  A
C637       C1049   1.475       .  S
C638        C639   1.397       .  A
C638        H643   1.084       .  S
C639        C640   1.400       .  A
C639       C1119   1.469       .  S
C640        C641   1.398       .  A
C640        H644   1.084       .  S
C641        C642   1.400       .  A
C641       C1007   1.482       .  S
C642        H645   1.084       .  S
C646        C647   1.401       .  A
C646        C651   1.403       .  A
C646       C1164   1.476       .  S
C647        C648   1.396       .  A
C647        H652   1.084       .  S
C648        C649   1.396       .  A
C648        C993   1.478       .  S
C649        C650   1.399       .  A
C649        H653   1.085       .  S
C650        C651   1.403       .  A
C650       C1133   1.479       .  S
C651        H654   1.084       .  S
C655        C656   1.409       .  A
C655        C660   1.400       .  A
C655       C1077   1.493       .  S
C656        C657   1.417       .  A
C656        H661   1.081       .  S
C657        C658   1.416       .  A
C657        C982   1.527       .  S
C658        C659   1.408       .  A
C658        H662   1.081       .  S
C659        C660   1.399       .  A
C659       C1178   1.493       .  S
C660        H663   1.084       .  S
C664        C665   1.403       .  A
C664        C669   1.402       .  A
C664       C1094   1.483       .  S
C665        C666   1.402       .  A
C665        H670   1.084       .  S
C666        C667   1.403       .  A
C666        C965   1.494       .  S
C667        C668   1.404       .  A
C667        H671   1.084       .  S
C668        C669   1.401       .  A
C668       C1038   1.481       .  S
C669        H672   1.084       .  S
C673        C674   1.411       .  A
C673        C678   1.405       .  A
C673       C1290   1.496       .  S
C674        C675   1.410       .  A
C674        H679   1.083       .  S
C675        C676   1.400       .  A
C675       C1388   1.488       .  S
C676        C677   1.400       .  A
C676        H680   1.084       .  S
C677        C678   1.398       .  A
C677        C954   1.487       .  S
C678        H681   1.084       .  S
C682        C683   1.409       .  A
C682        C687   1.403       .  A
C682       C1276   1.494       .  S
C683        C684   1.408       .  A
C683        H688   1.083       .  S
C684        C685   1.404       .  A
C684       C1248   1.488       .  S
C685        C686   1.400       .  A
C685        H689   1.084       .  S
C686        C687   1.400       .  A
C686        C937   1.487       .  S
C687        H690   1.084       .  S
C691        C692   1.399       .  A
C691        C696   1.411       .  A
C691       C1234   1.487       .  S
C692        C693   1.398       .  A
C692        H697   1.084       .  S
C693        C694   1.401       .  A
C693       C1332   1.480       .  S
C694        C695   1.405       .  A
C694        H698   1.084       .  S
C695        C696   1.409       .  A
C695        C926   1.502       .  S
C696        H699   1.084       .  S
C700        C701   1.402       .  A
C700        C705   1.403       .  A
C700       C1402   1.492       .  S
C701        C702   1.401       .  A
C701        H706   1.084       .  S
C702        C703   1.407       .  A
C702       C1318   1.489       .  S
C703        C704   1.409       .  A
C703        H707   1.082       .  S
C704        C705   1.409       .  A
C704        C909   1.512       .  S
C705        H708   1.083       .  S
C709        C710   1.398       .  A
C709        C714   1.394       .  A
C709       C1217   1.473       .  S
C710        C711   1.407       .  A
C710        H715   1.082       .  S
C711        C712   1.411       .  A
C711        C895   1.508       .  S
C712        C713   1.404       .  A
C712        H716   1.082       .  S
C713        C714   1.395       .  A
C713       C1024   1.477       .  S
C714        H717   1.084       .  S
C718        C719   1.405       .  A
C718        C723   1.401       .  A
C718       C1262   1.486       .  S
C719        C720   1.403       .  A
C719        H724   1.084       .  S
C720        C721   1.407       .  A
C720        C881   1.497       .  S
C721        C722   1.410       .  A
C721        H725   1.084       .  S
C722        C723   1.404       .  A
C722       C1066   1.494       .  S
C723        H726   1.084       .  S
C727        C728   1.398       .  A
C727        C732   1.401       .  A
C727       C1301   1.480       .  S
C728        C729   1.397       .  A
C728        H733   1.085       .  S
C729        C730   1.403       .  A
C729        C867   1.487       .  S
C730        C731   1.406       .  A
C730        H734   1.084       .  S
C731        C732   1.401       .  A
C731       C1108   1.481       .  S
C732        H735   1.084       .  S
C736        C737   1.401       .  A
C736        C741   1.398       .  A
C736       C1374   1.482       .  S
C737        C738   1.403       .  A
C737        H742   1.084       .  S
C738        C739   1.409       .  A
C738        C853   1.498       .  S
C739        C740   1.408       .  A
C739        H743   1.083       .  S
C740        C741   1.401       .  A
C740       C1150   1.487       .  S
C741        H744   1.084       .  S
O745       Zr781   2.452   1_566  S
O745        C756   1.295       .  A
O746       Zr780   2.435   1_565  S
O746        C757   1.291       .  A
O747       Zr753   2.449   1_556  S
O747        C758   1.293       .  A
O748       Zr753   2.444       .  S
O748        C759   1.294       .  A
O749       Zr783   2.460   1_565  S
O749        C759   1.296       .  A
O750       Zr782   2.435   1_565  S
O750        C758   1.290       .  A
O751       Zr753   2.440   1_456  S
O751        C757   1.292   1_556  A
O752       Zr753   2.428   1_556  S
O752        C756   1.291       .  A
Zr753       O754   2.338   1_665  S
Zr753       O755   2.344   1_564  S
Zr753       O763   2.343   1_565  S
Zr753       O761   2.323   1_664  S
O754       Zr780   2.340       .  S
O754       Zr783   2.341   1_455  S
O755       Zr781   2.335   1_556  S
O755       Zr782   2.323       .  S
C756       C1847   1.493       .  S
C757       C1766   1.508   1_554  S
C758       C1640   1.517       .  S
C759       C1556   1.502       .  S
H760        O761   0.964   1_565  S
O761       Zr780   2.323   1_556  S
O761       Zr782   2.333   1_455  S
H762        O763   0.965   1_565  S
O763       Zr781   2.349       .  S
O763       Zr783   2.339       .  S
O764       Zr780   2.420       .  S
O764        C787   1.289       .  A
O765       Zr781   2.465       .  S
O765        C788   1.298       .  A
O766       Zr782   2.398   1_455  S
O766        C789   1.284       .  A
O767       Zr783   2.458   1_455  S
O767        C790   1.296       .  A
O768       Zr783   2.468       .  S
O768        C791   1.298       .  A
O769       Zr782   2.433       .  S
O769        C792   1.289       .  A
O770       Zr784   2.461   1_556  S
O770        C793   1.296       .  A
O771       Zr784   2.475       .  S
O771        C794   1.299       .  A
O772       Zr782   2.430       .  S
O772        C793   1.292       .  A
O773       Zr783   2.431       .  S
O773        C794   1.291       .  A
O774       Zr780   2.466   1_556  S
O774        C789   1.298       .  A
O775       Zr781   2.432   1_556  S
O775        C792   1.290       .  A
O776       Zr781   2.407       .  S
O776        C791   1.285       .  A
O777       Zr780   2.442       .  S
O777        C790   1.294       .  A
O778       Zr784   2.482   1_455  S
O778        C787   1.301       .  A
O779       Zr784   2.449       .  S
O779        C788   1.294       .  A
Zr780       O786   2.339   1_554  S
Zr780       O798   2.352       .  S
Zr781       O785   2.344       .  S
Zr781       O796   2.334   1_554  S
Zr782       O786   2.345   1_655  S
Zr782       O796   2.333       .  S
Zr783       O785   2.346       .  S
Zr783       O798   2.360   1_655  S
Zr784       O785   2.354       .  S
Zr784       O786   2.345   1_654  S
Zr784       O798   2.353   1_655  S
Zr784       O796   2.363   1_554  S
C787       C1189   1.500       .  S
C788       C1808   1.496       .  S
C789       C1598   1.477       .  S
C790       C1343   1.501       .  S
C791       C1514   1.505       .  S
C792       C1724   1.510       .  S
C793       C1682   1.489       .  S
C794       C1444   1.520       .  S
H795        O796   0.966       .  S
H797        O798   0.966       .  S
O799       Zr835   2.411       .  S
O799        C810   1.286       .  A
O800       Zr834   2.474       .  S
O800        C811   1.299       .  A
O801       Zr807   2.423       .  S
O801        C812   1.289       .  A
O802       Zr807   2.441       .  S
O802        C813   1.293       .  A
O803       Zr837   2.444       .  S
O803        C813   1.293       .  A
O804       Zr836   2.442       .  S
O804        C812   1.292       .  A
O805       Zr807   2.430       .  S
O805        C811   1.291       .  A
O806       Zr807   2.466       .  S
O806        C810   1.298       .  A
Zr807       O808   2.347       .  S
Zr807       O809   2.331       .  S
Zr807       O817   2.328       .  S
Zr807       O815   2.349       .  S
O808       Zr834   2.357       .  S
O808       Zr837   2.336       .  S
O809       Zr835   2.330       .  S
O809       Zr836   2.333       .  S
C810       C1010   1.502       .  S
C811        C979   1.489       .  S
C812        C996   1.504       .  S
C813        C968   1.501       .  S
H814        O815   0.965       .  S
O815       Zr834   2.345       .  S
O815       Zr836   2.334       .  S
H816        O817   0.966       .  S
O817       Zr835   2.349       .  S
O817       Zr837   2.348       .  S
O818       Zr834   2.473       .  S
O818        C841   1.299       .  A
O819       Zr835   2.434       .  S
O819        C842   1.291       .  A
O820       Zr836   2.429       .  S
O820        C843   1.291       .  A
O821       Zr837   2.461       .  S
O821        C844   1.297       .  A
O822       Zr837   2.441       .  S
O822        C845   1.293       .  A
O823       Zr836   2.424       .  S
O823        C846   1.289       .  A
O824       Zr838   2.446       .  S
O824        C847   1.292       .  A
O825       Zr838   2.448       .  S
O825        C848   1.294       .  A
O826       Zr836   2.453       .  S
O826        C847   1.294       .  A
O827       Zr837   2.433       .  S
O827        C848   1.291       .  A
O828       Zr834   2.458       .  S
O828        C843   1.296       .  A
O829       Zr835   2.461       .  S
O829        C846   1.296       .  A
O830       Zr835   2.429       .  S
O830        C845   1.290       .  A
O831       Zr834   2.456       .  S
O831        C844   1.295       .  A
O832       Zr838   2.406       .  S
O832        C841   1.285       .  A
O833       Zr838   2.446       .  S
O833        C842   1.293       .  A
Zr834       O840   2.351       .  S
Zr834       O852   2.346       .  S
Zr835       O839   2.341       .  S
Zr835       O850   2.325       .  S
Zr836       O840   2.338       .  S
Zr836       O850   2.343       .  S
Zr837       O839   2.350       .  S
Zr837       O852   2.341       .  S
Zr838       O839   2.328       .  S
Zr838       O840   2.352       .  S
Zr838       O852   2.349       .  S
Zr838       O850   2.335       .  S
C841        C951   1.507       .  S
C842        C923   1.502       .  S
C843        C856   1.498       .  S
C844        C884   1.521       .  S
C845        C898   1.473       .  S
C846        C870   1.505       .  S
C847        C912   1.485       .  S
C848        C940   1.506       .  S
H849        O850   0.965       .  S
H851        O852   0.966       .  S
C853        C854   1.415       .  A
C853        C858   1.415       .  A
C854        C855   1.410       .  A
C854        C859   1.453       .  S
C855        C856   1.418       .  A
C855        C862   1.452       .  S
C856        C857   1.418       .  A
C857        C858   1.416       .  A
C857        C860   1.451       .  S
C858        C861   1.451       .  S
C859        N866   1.157       .  T
C860        N865   1.157       .  T
C861        N863   1.157       .  T
C862        N864   1.157       .  T
C867        C868   1.409       .  A
C867        C872   1.410       .  A
C868        C869   1.410       .  A
C868        C873   1.453       .  S
C869        C870   1.425       .  A
C869        C876   1.452       .  S
C870        C871   1.421       .  A
C871        C872   1.413       .  A
C871        C874   1.447       .  S
C872        C875   1.453       .  S
C873        N880   1.157       .  T
C874        N879   1.156       .  T
C875        N877   1.157       .  T
C876        N878   1.158       .  T
C881        C882   1.408       .  A
C881        C886   1.409       .  A
C882        C883   1.416       .  A
C882        C887   1.453       .  S
C883        C884   1.426       .  A
C883        C890   1.448       .  S
C884        C885   1.428       .  A
C885        C886   1.419       .  A
C885        C888   1.451       .  S
C886        C889   1.451       .  S
C887        N894   1.157       .  T
C888        N893   1.158       .  T
C889        N891   1.157       .  T
C890        N892   1.156       .  T
C895        C896   1.427       .  A
C895        C900   1.425       .  A
C896        C897   1.407       .  A
C896        C901   1.451       .  S
C897        C898   1.404       .  A
C897        C904   1.452       .  S
C898        C899   1.406       .  A
C899        C900   1.410       .  A
C899        C902   1.451       .  S
C900        C903   1.451       .  S
C901        N908   1.157       .  T
C902        N907   1.157       .  T
C903        N905   1.158       .  T
C904        N906   1.157       .  T
C909        C910   1.422       .  A
C909        C914   1.424       .  A
C910        C911   1.410       .  A
C910        C915   1.452       .  S
C911        C912   1.407       .  A
C911        C918   1.449       .  S
C912        C913   1.410       .  A
C913        C914   1.415       .  A
C913        C916   1.451       .  S
C914        C917   1.450       .  S
C915        N922   1.158       .  T
C916        N921   1.157       .  T
C917        N919   1.158       .  T
C918        N920   1.157       .  T
C923        C924   1.420       .  A
C923        C928   1.420       .  A
C924        C925   1.417       .  A
C924        C929   1.452       .  S
C925        C926   1.416       .  A
C925        C932   1.450       .  S
C926        C927   1.415       .  A
C927        C928   1.411       .  A
C927        C930   1.453       .  S
C928        C931   1.453       .  S
C929        N936   1.157       .  T
C930        N935   1.157       .  T
C931        N933   1.157       .  T
C932        N934   1.157       .  T
C937        C938   1.409       .  A
C937        C942   1.407       .  A
C938        C939   1.412       .  A
C938        C943   1.451       .  S
C939        C940   1.426       .  A
C939        C946   1.452       .  S
C940        C941   1.423       .  A
C941        C942   1.410       .  A
C941        C944   1.449       .  S
C942        C945   1.453       .  S
C943        N950   1.157       .  T
C944        N949   1.156       .  T
C945        N947   1.157       .  T
C946        N948   1.158       .  T
C951        C952   1.431       .  A
C951        C956   1.422       .  A
C952        C953   1.408       .  A
C952        C957   1.454       .  S
C953        C954   1.406       .  A
C953        C960   1.455       .  S
C954        C955   1.410       .  A
C955        C956   1.414       .  A
C955        C958   1.452       .  S
C956        C959   1.451       .  S
C957        N964   1.158       .  T
C958        N963   1.157       .  T
C959        N961   1.157       .  T
C960        N962   1.157       .  T
C965        C966   1.414       .  A
C965        C970   1.412       .  A
C966        C967   1.414       .  A
C966        C971   1.453       .  S
C967        C968   1.420       .  A
C967        C974   1.451       .  S
C968        C969   1.421       .  A
C969        C970   1.412       .  A
C969        C972   1.452       .  S
C970        C973   1.452       .  S
C971        N978   1.157       .  T
C972        N977   1.157       .  T
C973        N975   1.157       .  T
C974        N976   1.157       .  T
C979        C980   1.406       .  A
C979        C984   1.407       .  A
C980        C981   1.417       .  A
C980        C985   1.450       .  S
C981        C982   1.430       .  A
C981        C988   1.449       .  S
C982        C983   1.428       .  A
C983        C984   1.413       .  A
C983        C986   1.451       .  S
C984        C987   1.451       .  S
C985        N992   1.157       .  T
C986        N991   1.158       .  T
C987        N989   1.157       .  T
C988        N990   1.157       .  T
C993        C994   1.406       .  A
C993        C998   1.407       .  A
C994        C995   1.407       .  A
C994        C999   1.454       .  S
C995        C996   1.425       .  A
C995       C1002   1.450       .  S
C996        C997   1.428       .  A
C997        C998   1.410       .  A
C997       C1000   1.454       .  S
C998       C1001   1.453       .  S
C999       N1006   1.157       .  T
C1000      N1005   1.158       .  T
C1001      N1003   1.157       .  T
C1002      N1004   1.156       .  T
C1007      C1008   1.408       .  A
C1007      C1012   1.407       .  A
C1008      C1009   1.409       .  A
C1008      C1013   1.453       .  S
C1009      C1010   1.426       .  A
C1009      C1016   1.452       .  S
C1010      C1011   1.418       .  A
C1011      C1012   1.409       .  A
C1011      C1014   1.445       .  S
C1012      C1015   1.453       .  S
C1013      N1020   1.157       .  T
C1014      N1019   1.155       .  T
C1015      N1017   1.157       .  T
C1016      N1018   1.158       .  T
C1021      C1022   1.410       .  A
C1021      C1026   1.413       .  A
C1022      C1023   1.410       .  A
C1022      C1027   1.451       .  S
C1023      C1024   1.413       .  A
C1023      C1030   1.451       .  S
C1024      C1025   1.407       .  A
C1025      C1026   1.405       .  A
C1025      C1028   1.451       .  S
C1026      C1029   1.451       .  S
C1027      N1034   1.157       .  T
C1028      N1033   1.157       .  T
C1029      N1031   1.157       .  T
C1030      N1032   1.157       .  T
C1035      C1036   1.413       .  A
C1035      C1040   1.414       .  A
C1036      C1037   1.413       .  A
C1036      C1041   1.450       .  S
C1037      C1038   1.412       .  A
C1037      C1044   1.450       .  S
C1038      C1039   1.408       .  A
C1039      C1040   1.405       .  A
C1039      C1042   1.452       .  S
C1040      C1043   1.451       .  S
C1041      N1048   1.157       .  T
C1042      N1047   1.157       .  T
C1043      N1045   1.157       .  T
C1044      N1046   1.157       .  T
C1049      C1050   1.413       .  A
C1049      C1054   1.409       .  A
C1050      C1051   1.407       .  A
C1050      C1055   1.450       .  S
C1051      C1052   1.408       .  A
C1051      C1058   1.451       .  S
C1052      C1053   1.411       .  A
C1053      C1054   1.404       .  A
C1053      C1056   1.449       .  S
C1054      C1057   1.452       .  S
C1055      N1062   1.157       .  T
C1056      N1061   1.156       .  T
C1057      N1059   1.157       .  T
C1058      N1060   1.157       .  T
C1063      C1064   1.411       .  A
C1063      C1068   1.411       .  A
C1064      C1065   1.414       .  A
C1064      C1069   1.450       .  S
C1065      C1066   1.413       .  A
C1065      C1072   1.451       .  S
C1066      C1067   1.415       .  A
C1067      C1068   1.413       .  A
C1067      C1070   1.450       .  S
C1068      C1071   1.451       .  S
C1069      N1076   1.157       .  T
C1070      N1075   1.157       .  T
C1071      N1073   1.157       .  T
C1072      N1074   1.157       .  T
C1077      C1078   1.411       .  A
C1077      C1082   1.414       .  A
C1078      C1079   1.408       .  A
C1078      C1083   1.452       .  S
C1079      C1080   1.416       .  A
C1079      C1086   1.453       .  S
C1080      C1081   1.414       .  A
C1081      C1082   1.420       .  A
C1081      C1084   1.448       .  S
C1082      C1085   1.449       .  S
C1083      N1090   1.157       .  T
C1084      N1089   1.157       .  T
C1085      N1087   1.157       .  T
C1086      N1088   1.157       .  T
C1091      C1092   1.412       .  A
C1091      C1096   1.412       .  A
C1092      C1093   1.413       .  A
C1092      C1097   1.450       .  S
C1093      C1094   1.413       .  A
C1093      C1100   1.451       .  S
C1094      C1095   1.409       .  A
C1095      C1096   1.407       .  A
C1095      C1098   1.452       .  S
C1096      C1099   1.447       .  S
C1097      N1104   1.157       .  T
C1098      N1103   1.157       .  T
C1099      N1101   1.155       .  T
C1100      N1102   1.157       .  T
C1105      C1106   1.413       .  A
C1105      C1110   1.413       .  A
C1106      C1107   1.408       .  A
C1106      C1111   1.451       .  S
C1107      C1108   1.409       .  A
C1107      C1114   1.452       .  S
C1108      C1109   1.411       .  A
C1109      C1110   1.413       .  A
C1109      C1112   1.450       .  S
C1110      C1113   1.450       .  S
C1111      N1118   1.157       .  T
C1112      N1117   1.157       .  T
C1113      N1115   1.157       .  T
C1114      N1116   1.157       .  T
C1119      C1120   1.408       .  A
C1119      C1124   1.411       .  A
C1120      C1121   1.400       .  A
C1120      C1125   1.452       .  S
C1121      C1122   1.411       .  A
C1121      C1128   1.452       .  S
C1122      C1123   1.409       .  A
C1123      C1124   1.409       .  A
C1123      C1126   1.450       .  S
C1124      C1127   1.450       .  S
C1125      N1132   1.157       .  T
C1126      N1131   1.157       .  T
C1127      N1129   1.157       .  T
C1128      N1130   1.157       .  T
C1133      C1134   1.412       .  A
C1133      C1138   1.411       .  A
C1134      C1135   1.405       .  A
C1134      C1139   1.452       .  S
C1135      C1136   1.410       .  A
C1135      C1142   1.451       .  S
C1136      C1137   1.412       .  A
C1137      C1138   1.410       .  A
C1137      C1140   1.451       .  S
C1138      C1141   1.451       .  S
C1139      N1146   1.157       .  T
C1140      N1145   1.157       .  T
C1141      N1143   1.157       .  T
C1142      N1144   1.157       .  T
C1147      C1148   1.414       .  A
C1147      C1152   1.413       .  A
C1148      C1149   1.410       .  A
C1148      C1153   1.450       .  S
C1149      C1150   1.410       .  A
C1149      C1156   1.452       .  S
C1150      C1151   1.411       .  A
C1151      C1152   1.415       .  A
C1151      C1154   1.450       .  S
C1152      C1155   1.449       .  S
C1153      N1160   1.157       .  T
C1154      N1159   1.157       .  T
C1155      N1157   1.157       .  T
C1156      N1158   1.157       .  T
C1161      C1162   1.411       .  A
C1161      C1166   1.410       .  A
C1162      C1163   1.409       .  A
C1162      C1167   1.450       .  S
C1163      C1164   1.410       .  A
C1163      C1170   1.450       .  S
C1164      C1165   1.410       .  A
C1165      C1166   1.406       .  A
C1165      C1168   1.451       .  S
C1166      C1169   1.450       .  S
C1167      N1174   1.157       .  T
C1168      N1173   1.157       .  T
C1169      N1171   1.157       .  T
C1170      N1172   1.157       .  T
C1175      C1176   1.417       .  A
C1175      C1180   1.412       .  A
C1176      C1177   1.411       .  A
C1176      C1181   1.449       .  S
C1177      C1178   1.408       .  A
C1177      C1184   1.452       .  S
C1178      C1179   1.416       .  A
C1179      C1180   1.418       .  A
C1179      C1182   1.450       .  S
C1180      C1183   1.449       .  S
C1181      N1188   1.156       .  T
C1182      N1187   1.157       .  T
C1183      N1185   1.157       .  T
C1184      N1186   1.157       .  T
C1189      C1190   1.418   1_554  A
C1189      C1194   1.411       .  A
C1190      C1191   1.413       .  A
C1190      C1195   1.449       .  S
C1191      C1192   1.417   1_556  A
C1191      C1198   1.453       .  S
C1192      C1193   1.422       .  A
C1193      C1194   1.416       .  A
C1193      C1196   1.450       .  S
C1194      C1197   1.449       .  S
C1195      N1202   1.156       .  T
C1196      N1201   1.157       .  T
C1197      N1199   1.156       .  T
C1198      N1200   1.158       .  T
C1203      C1204   1.415       .  A
C1203      C1208   1.410       .  A
C1204      C1205   1.415       .  A
C1204      C1209   1.451       .  S
C1205      C1206   1.412       .  A
C1205      C1212   1.450       .  S
C1206      C1207   1.416       .  A
C1207      C1208   1.409       .  A
C1207      C1210   1.451       .  S
C1208      C1211   1.452       .  S
C1209      N1216   1.157       .  T
C1210      N1215   1.157       .  T
C1211      N1213   1.157       .  T
C1212      N1214   1.157       .  T
C1217      C1218   1.413       .  A
C1217      C1222   1.407       .  A
C1218      C1219   1.403       .  A
C1218      C1223   1.452       .  S
C1219      C1220   1.406       .  A
C1219      C1226   1.449       .  S
C1220      C1221   1.413       .  A
C1221      C1222   1.410       .  A
C1221      C1224   1.450       .  S
C1222      C1225   1.450       .  S
C1223      N1230   1.157       .  T
C1224      N1229   1.157       .  T
C1225      N1227   1.157       .  T
C1226      N1228   1.156       .  T
C1231      C1232   1.416       .  A
C1231      C1236   1.414       .  A
C1232      C1233   1.407       .  A
C1232      C1237   1.452       .  S
C1233      C1234   1.409       .  A
C1233      C1240   1.451       .  S
C1234      C1235   1.413       .  A
C1235      C1236   1.416       .  A
C1235      C1238   1.450       .  S
C1236      C1239   1.449       .  S
C1237      N1244   1.157       .  T
C1238      N1243   1.157       .  T
C1239      N1241   1.157       .  T
C1240      N1242   1.157       .  T
C1245      C1246   1.412       .  A
C1245      C1250   1.409       .  A
C1246      C1247   1.412       .  A
C1246      C1251   1.451       .  S
C1247      C1248   1.411       .  A
C1247      C1254   1.450       .  S
C1248      C1249   1.413       .  A
C1249      C1250   1.413       .  A
C1249      C1252   1.450       .  S
C1250      C1253   1.448       .  S
C1251      N1258   1.157       .  T
C1252      N1257   1.157       .  T
C1253      N1255   1.157       .  T
C1254      N1256   1.157       .  T
C1259      C1260   1.415       .  A
C1259      C1264   1.412       .  A
C1260      C1261   1.407       .  A
C1260      C1265   1.452       .  S
C1261      C1262   1.409       .  A
C1261      C1268   1.452       .  S
C1262      C1263   1.413       .  A
C1263      C1264   1.415       .  A
C1263      C1266   1.450       .  S
C1264      C1267   1.449       .  S
C1265      N1272   1.157       .  T
C1266      N1271   1.157       .  T
C1267      N1269   1.157       .  T
C1268      N1270   1.157       .  T
C1273      C1274   1.413       .  A
C1273      C1278   1.415       .  A
C1274      C1275   1.413       .  A
C1274      C1279   1.450       .  S
C1275      C1276   1.415       .  A
C1275      C1282   1.452       .  S
C1276      C1277   1.412       .  A
C1277      C1278   1.413       .  A
C1277      C1280   1.450       .  S
C1278      C1281   1.450       .  S
C1279      N1286   1.157       .  T
C1280      N1285   1.157       .  T
C1281      N1283   1.157       .  T
C1282      N1284   1.157       .  T
C1287      C1288   1.411       .  A
C1287      C1292   1.413       .  A
C1288      C1289   1.410       .  A
C1288      C1293   1.451       .  S
C1289      C1290   1.415       .  A
C1289      C1296   1.452       .  S
C1290      C1291   1.415       .  A
C1291      C1292   1.416       .  A
C1291      C1294   1.450       .  S
C1292      C1295   1.451       .  S
C1293      N1300   1.157       .  T
C1294      N1299   1.157       .  T
C1295      N1297   1.157       .  T
C1296      N1298   1.157       .  T
C1301      C1302   1.415       .  A
C1301      C1306   1.411       .  A
C1302      C1303   1.407       .  A
C1302      C1307   1.453       .  S
C1303      C1304   1.410       .  A
C1303      C1310   1.451       .  S
C1304      C1305   1.412       .  A
C1305      C1306   1.407       .  A
C1305      C1308   1.452       .  S
C1306      C1309   1.451       .  S
C1307      N1314   1.157       .  T
C1308      N1313   1.157       .  T
C1309      N1311   1.157       .  T
C1310      N1312   1.157       .  T
C1315      C1316   1.412       .  A
C1315      C1320   1.414       .  A
C1316      C1317   1.414       .  A
C1316      C1321   1.451       .  S
C1317      C1318   1.414       .  A
C1317      C1324   1.450       .  S
C1318      C1319   1.410       .  A
C1319      C1320   1.410       .  A
C1319      C1322   1.451       .  S
C1320      C1323   1.450       .  S
C1321      N1328   1.157       .  T
C1322      N1327   1.157       .  T
C1323      N1325   1.157       .  T
C1324      N1326   1.157       .  T
C1329      C1330   1.412       .  A
C1329      C1334   1.416       .  A
C1330      C1331   1.415       .  A
C1330      C1335   1.449       .  S
C1331      C1332   1.413       .  A
C1331      C1338   1.450       .  S
C1332      C1333   1.407       .  A
C1333      C1334   1.404       .  A
C1333      C1336   1.453       .  S
C1334      C1337   1.452       .  S
C1335      N1342   1.157       .  T
C1336      N1341   1.157       .  T
C1337      N1339   1.157       .  T
C1338      N1340   1.157       .  T
C1343      C1344   1.418       .  A
C1343      C1348   1.417       .  A
C1344      C1345   1.411       .  A
C1344      C1349   1.446   1_545  S
C1345      C1346   1.412       .  A
C1345      C1352   1.453   1_545  S
C1346      C1347   1.416       .  A
C1347      C1348   1.416       .  A
C1347      C1350   1.452       .  S
C1348      C1351   1.451       .  S
C1349      N1356   1.155       .  T
C1350      N1355   1.157       .  T
C1351      N1353   1.157       .  T
C1352      N1354   1.158       .  T
C1357      C1358   1.417       .  A
C1357      C1362   1.413       .  A
C1358      C1359   1.412       .  A
C1358      C1363   1.451       .  S
C1359      C1360   1.409       .  A
C1359      C1366   1.451       .  S
C1360      C1361   1.413       .  A
C1361      C1362   1.417       .  A
C1361      C1364   1.450       .  S
C1362      C1365   1.448       .  S
C1363      N1370   1.157       .  T
C1364      N1369   1.157       .  T
C1365      N1367   1.157       .  T
C1366      N1368   1.157       .  T
C1371      C1372   1.413       .  A
C1371      C1376   1.409       .  A
C1372      C1373   1.406       .  A
C1372      C1377   1.453       .  S
C1373      C1374   1.411       .  A
C1373      C1380   1.451       .  S
C1374      C1375   1.414       .  A
C1375      C1376   1.410       .  A
C1375      C1378   1.450       .  S
C1376      C1379   1.451       .  S
C1377      N1384   1.157       .  T
C1378      N1383   1.157       .  T
C1379      N1381   1.157       .  T
C1380      N1382   1.157       .  T
C1385      C1386   1.410       .  A
C1385      C1390   1.415       .  A
C1386      C1387   1.416       .  A
C1386      C1391   1.450       .  S
C1387      C1388   1.415       .  A
C1387      C1394   1.449       .  S
C1388      C1389   1.410       .  A
C1389      C1390   1.410       .  A
C1389      C1392   1.452       .  S
C1390      C1393   1.451       .  S
C1391      N1398   1.157       .  T
C1392      N1397   1.157       .  T
C1393      N1395   1.157       .  T
C1394      N1396   1.157       .  T
C1399      C1400   1.413       .  A
C1399      C1404   1.414       .  A
C1400      C1401   1.409       .  A
C1400      C1405   1.452       .  S
C1401      C1402   1.415       .  A
C1401      C1408   1.452       .  S
C1402      C1403   1.414       .  A
C1403      C1404   1.412       .  A
C1403      C1406   1.451       .  S
C1404      C1407   1.451       .  S
C1405      N1412   1.157       .  T
C1406      N1411   1.157       .  T
C1407      N1409   1.157       .  T
C1408      N1410   1.157       .  T
C1413      C1414   1.411       .  A
C1413      C1418   1.410       .  A
C1414      C1415   1.412       .  A
C1414      C1419   1.449       .  S
C1415      C1416   1.410       .  A
C1415      C1422   1.449       .  S
C1416      C1417   1.412       .  A
C1417      C1418   1.406       .  A
C1417      C1420   1.452       .  S
C1418      C1421   1.452       .  S
C1419      N1426   1.157       .  T
C1420      N1425   1.157       .  T
C1421      N1423   1.157       .  T
C1422      N1424   1.157       .  T
C1427      C1428   1.415       .  A
C1427      C1432   1.414       .  A
C1428      C1429   1.411       .  A
C1428      C1433   1.452       .  S
C1429      C1430   1.414       .  A
C1429      C1436   1.452       .  S
C1430      C1431   1.415       .  A
C1431      C1432   1.412       .  A
C1431      C1434   1.450       .  S
C1432      C1435   1.452       .  S
C1433      N1440   1.157       .  T
C1434      N1439   1.157       .  T
C1435      N1437   1.157       .  T
C1436      N1438   1.157       .  T
C1441      C1442   1.406       .  A
C1441      C1446   1.410       .  A
C1442      C1443   1.413       .  A
C1442      C1447   1.453       .  S
C1443      C1444   1.430       .  A
C1443      C1450   1.452       .  S
C1444      C1445   1.424       .  A
C1445      C1446   1.417       .  A
C1445      C1448   1.449       .  S
C1446      C1449   1.452       .  S
C1447      N1454   1.157       .  T
C1448      N1453   1.158       .  T
C1449      N1451   1.157       .  T
C1450      N1452   1.157       .  T
C1455      C1456   1.410       .  A
C1455      C1460   1.412       .  A
C1456      C1457   1.405       .  A
C1456      C1461   1.452       .  S
C1457      C1458   1.414       .  A
C1457      C1464   1.453       .  S
C1458      C1459   1.412       .  A
C1459      C1460   1.414       .  A
C1459      C1462   1.450       .  S
C1460      C1463   1.449       .  S
C1461      N1468   1.157       .  T
C1462      N1467   1.157       .  T
C1463      N1465   1.157       .  T
C1464      N1466   1.157       .  T
C1469      C1470   1.418       .  A
C1469      C1474   1.415       .  A
C1470      C1471   1.412       .  A
C1470      C1475   1.451       .  S
C1471      C1472   1.410       .  A
C1471      C1478   1.452       .  S
C1472      C1473   1.410       .  A
C1473      C1474   1.411       .  A
C1473      C1476   1.451       .  S
C1474      C1477   1.451       .  S
C1475      N1482   1.157       .  T
C1476      N1481   1.157       .  T
C1477      N1479   1.157       .  T
C1478      N1480   1.157       .  T
C1483      C1484   1.412       .  A
C1483      C1488   1.410       .  A
C1484      C1485   1.413       .  A
C1484      C1489   1.450       .  S
C1485      C1486   1.412       .  A
C1485      C1492   1.450       .  S
C1486      C1487   1.414       .  A
C1487      C1488   1.408       .  A
C1487      C1490   1.452       .  S
C1488      C1491   1.451       .  S
C1489      N1496   1.157       .  T
C1490      N1495   1.157       .  T
C1491      N1493   1.157       .  T
C1492      N1494   1.157       .  T
C1497      C1498   1.412       .  A
C1497      C1502   1.411       .  A
C1498      C1499   1.411       .  A
C1498      C1503   1.452       .  S
C1499      C1500   1.411       .  A
C1499      C1506   1.449       .  S
C1500      C1501   1.412       .  A
C1501      C1502   1.412       .  A
C1501      C1504   1.451       .  S
C1502      C1505   1.451       .  S
C1503      N1510   1.157       .  T
C1504      N1509   1.157       .  T
C1505      N1507   1.157       .  T
C1506      N1508   1.157       .  T
C1511      C1512   1.406       .  A
C1511      C1516   1.409       .  A
C1512      C1513   1.409       .  A
C1512      C1517   1.454       .  S
C1513      C1514   1.430       .  A
C1513      C1520   1.454       .  S
C1514      C1515   1.421       .  A
C1515      C1516   1.411       .  A
C1515      C1518   1.452   1_545  S
C1516      C1519   1.451   1_545  S
C1517      N1524   1.157       .  T
C1518      N1523   1.158       .  T
C1519      N1521   1.157       .  T
C1520      N1522   1.158       .  T
C1525      C1526   1.413       .  A
C1525      C1530   1.415       .  A
C1526      C1527   1.414       .  A
C1526      C1531   1.450       .  S
C1527      C1528   1.412       .  A
C1527      C1534   1.450       .  S
C1528      C1529   1.411       .  A
C1529      C1530   1.412       .  A
C1529      C1532   1.451       .  S
C1530      C1533   1.452       .  S
C1531      N1538   1.157       .  T
C1532      N1537   1.157       .  T
C1533      N1535   1.157       .  T
C1534      N1536   1.157       .  T
C1539      C1540   1.414       .  A
C1539      C1544   1.409       .  A
C1540      C1541   1.415       .  A
C1540      C1545   1.449       .  S
C1541      C1542   1.412       .  A
C1541      C1548   1.450       .  S
C1542      C1543   1.417       .  A
C1543      C1544   1.408       .  A
C1543      C1546   1.452       .  S
C1544      C1547   1.452       .  S
C1545      N1552   1.157       .  T
C1546      N1551   1.157       .  T
C1547      N1549   1.157       .  T
C1548      N1550   1.157       .  T
C1553      C1554   1.417       .  A
C1553      C1558   1.418   1_655  A
C1554      C1555   1.415       .  A
C1554      C1559   1.452       .  S
C1555      C1556   1.417       .  A
C1555      C1562   1.452       .  S
C1556      C1557   1.417       .  A
C1557      C1558   1.418   1_655  A
C1557      C1560   1.451   1_655  S
C1558      C1561   1.451       .  S
C1559      N1566   1.157       .  T
C1560      N1565   1.157       .  T
C1561      N1563   1.157       .  T
C1562      N1564   1.157       .  T
C1567      C1568   1.413       .  A
C1567      C1572   1.412       .  A
C1568      C1569   1.409       .  A
C1568      C1573   1.452       .  S
C1569      C1570   1.411       .  A
C1569      C1576   1.451       .  S
C1570      C1571   1.409       .  A
C1571      C1572   1.405       .  A
C1571      C1574   1.450       .  S
C1572      C1575   1.451       .  S
C1573      N1580   1.157       .  T
C1574      N1579   1.156       .  T
C1575      N1577   1.157       .  T
C1576      N1578   1.157       .  T
C1581      C1582   1.415       .  A
C1581      C1586   1.412       .  A
C1582      C1583   1.408       .  A
C1582      C1587   1.452       .  S
C1583      C1584   1.411       .  A
C1583      C1590   1.451       .  S
C1584      C1585   1.412       .  A
C1585      C1586   1.407       .  A
C1585      C1588   1.451       .  S
C1586      C1589   1.452       .  S
C1587      N1594   1.157       .  T
C1588      N1593   1.157       .  T
C1589      N1591   1.157       .  T
C1590      N1592   1.157       .  T
C1595      C1596   1.419       .  A
C1595      C1600   1.417       .  A
C1596      C1597   1.410       .  A
C1596      C1601   1.452       .  S
C1597      C1598   1.412       .  A
C1597      C1604   1.452       .  S
C1598      C1599   1.405       .  A
C1599      C1600   1.402       .  A
C1599      C1602   1.448   1_545  S
C1600      C1603   1.452   1_545  S
C1601      N1608   1.158       .  T
C1602      N1607   1.157       .  T
C1603      N1605   1.158       .  T
C1604      N1606   1.157       .  T
C1609      C1610   1.413       .  A
C1609      C1614   1.412       .  A
C1610      C1611   1.405       .  A
C1610      C1615   1.451       .  S
C1611      C1612   1.409       .  A
C1611      C1618   1.451       .  S
C1612      C1613   1.412       .  A
C1613      C1614   1.406       .  A
C1613      C1616   1.452       .  S
C1614      C1617   1.452       .  S
C1615      N1622   1.157       .  T
C1616      N1621   1.157       .  T
C1617      N1619   1.157       .  T
C1618      N1620   1.157       .  T
C1623      C1624   1.411       .  A
C1623      C1628   1.410       .  A
C1624      C1625   1.410       .  A
C1624      C1629   1.449       .  S
C1625      C1626   1.409       .  A
C1625      C1632   1.450       .  S
C1626      C1627   1.412       .  A
C1627      C1628   1.406       .  A
C1627      C1630   1.451       .  S
C1628      C1631   1.452       .  S
C1629      N1636   1.157       .  T
C1630      N1635   1.157       .  T
C1631      N1633   1.157       .  T
C1632      N1634   1.157       .  T
C1637      C1638   1.404       .  A
C1637      C1642   1.407       .  A
C1638      C1639   1.412       .  A
C1638      C1643   1.452       .  S
C1639      C1640   1.429       .  A
C1639      C1646   1.452   1_655  S
C1640      C1641   1.428       .  A
C1641      C1642   1.413       .  A
C1641      C1644   1.451   1_655  S
C1642      C1645   1.453       .  S
C1643      N1650   1.157       .  T
C1644      N1649   1.157       .  T
C1645      N1647   1.157       .  T
C1646      N1648   1.158   1_565  T
C1651      C1652   1.416       .  A
C1651      C1656   1.412       .  A
C1652      C1653   1.416       .  A
C1652      C1657   1.450       .  S
C1653      C1654   1.412       .  A
C1653      C1660   1.449       .  S
C1654      C1655   1.414       .  A
C1655      C1656   1.410       .  A
C1655      C1658   1.451       .  S
C1656      C1659   1.452       .  S
C1657      N1664   1.157       .  T
C1658      N1663   1.157       .  T
C1659      N1661   1.157       .  T
C1660      N1662   1.157       .  T
C1665      C1666   1.416       .  A
C1665      C1670   1.416       .  A
C1666      C1667   1.410       .  A
C1666      C1671   1.452       .  S
C1667      C1668   1.411       .  A
C1667      C1674   1.452       .  S
C1668      C1669   1.413       .  A
C1669      C1670   1.416       .  A
C1669      C1672   1.451       .  S
C1670      C1673   1.451       .  S
C1671      N1678   1.157       .  T
C1672      N1677   1.157       .  T
C1673      N1675   1.157       .  T
C1674      N1676   1.157       .  T
C1679      C1680   1.418       .  A
C1679      C1684   1.421   1_655  A
C1680      C1681   1.407       .  A
C1680      C1685   1.452       .  S
C1681      C1682   1.410       .  A
C1681      C1688   1.451       .  S
C1682      C1683   1.411   1_655  A
C1683      C1684   1.418       .  A
C1683      C1686   1.450       .  S
C1684      C1687   1.450       .  S
C1685      N1692   1.157       .  T
C1686      N1691   1.158       .  T
C1687      N1689   1.157       .  T
C1688      N1690   1.157       .  T
C1693      C1694   1.414       .  A
C1693      C1698   1.413       .  A
C1694      C1695   1.412       .  A
C1694      C1699   1.450       .  S
C1695      C1696   1.410       .  A
C1695      C1702   1.451       .  S
C1696      C1697   1.411       .  A
C1697      C1698   1.412       .  A
C1697      C1700   1.452       .  S
C1698      C1701   1.450       .  S
C1699      N1706   1.157       .  T
C1700      N1705   1.157       .  T
C1701      N1703   1.157       .  T
C1702      N1704   1.157       .  T
C1707      C1708   1.415       .  A
C1707      C1712   1.413       .  A
C1708      C1709   1.409       .  A
C1708      C1713   1.450       .  S
C1709      C1710   1.410       .  A
C1709      C1716   1.452       .  S
C1710      C1711   1.413       .  A
C1711      C1712   1.414       .  A
C1711      C1714   1.450       .  S
C1712      C1715   1.450       .  S
C1713      N1720   1.157       .  T
C1714      N1719   1.157       .  T
C1715      N1717   1.157       .  T
C1716      N1718   1.157       .  T
C1721      C1722   1.406       .  A
C1721      C1726   1.406       .  A
C1722      C1723   1.410       .  A
C1722      C1727   1.452       .  S
C1723      C1724   1.428       .  A
C1723      C1730   1.453       .  S
C1724      C1725   1.428       .  A
C1725      C1726   1.413       .  A
C1725      C1728   1.452       .  S
C1726      C1729   1.452       .  S
C1727      N1734   1.157       .  T
C1728      N1733   1.158       .  T
C1729      N1731   1.157       .  T
C1730      N1732   1.158       .  T
C1735      C1736   1.411       .  A
C1735      C1740   1.413       .  A
C1736      C1737   1.404       .  A
C1736      C1741   1.449       .  S
C1737      C1738   1.410       .  A
C1737      C1744   1.452       .  S
C1738      C1739   1.411       .  A
C1739      C1740   1.410       .  A
C1739      C1742   1.451       .  S
C1740      C1743   1.451       .  S
C1741      N1748   1.156       .  T
C1742      N1747   1.157       .  T
C1743      N1745   1.157       .  T
C1744      N1746   1.157       .  T
C1749      C1750   1.410       .  A
C1749      C1754   1.413       .  A
C1750      C1751   1.406       .  A
C1750      C1755   1.451       .  S
C1751      C1752   1.411       .  A
C1751      C1758   1.452       .  S
C1752      C1753   1.408       .  A
C1753      C1754   1.412       .  A
C1753      C1756   1.450       .  S
C1754      C1757   1.449       .  S
C1755      N1762   1.157       .  T
C1756      N1761   1.157       .  T
C1757      N1759   1.157       .  T
C1758      N1760   1.157       .  T
C1763      C1764   1.409   1_556  A
C1763      C1768   1.406       .  A
C1764      C1765   1.412       .  A
C1764      C1769   1.453       .  S
C1765      C1766   1.426   1_554  A
C1765      C1772   1.453       .  S
C1766      C1767   1.429       .  A
C1767      C1768   1.410       .  A
C1767      C1770   1.453       .  S
C1768      C1771   1.453       .  S
C1769      N1776   1.157       .  T
C1770      N1775   1.158       .  T
C1771      N1773   1.157       .  T
C1772      N1774   1.158       .  T
C1777      C1778   1.410       .  A
C1777      C1782   1.412       .  A
C1778      C1779   1.410       .  A
C1778      C1783   1.452       .  S
C1779      C1780   1.418       .  A
C1779      C1786   1.451       .  S
C1780      C1781   1.415       .  A
C1781      C1782   1.414       .  A
C1781      C1784   1.450       .  S
C1782      C1785   1.451       .  S
C1783      N1790   1.157       .  T
C1784      N1789   1.157       .  T
C1785      N1787   1.157       .  T
C1786      N1788   1.157       .  T
C1791      C1792   1.417       .  A
C1791      C1796   1.415       .  A
C1792      C1793   1.412       .  A
C1792      C1797   1.451       .  S
C1793      C1794   1.411       .  A
C1793      C1800   1.452       .  S
C1794      C1795   1.411       .  A
C1795      C1796   1.414       .  A
C1795      C1798   1.450       .  S
C1796      C1799   1.450       .  S
C1797      N1804   1.157       .  T
C1798      N1803   1.157       .  T
C1799      N1801   1.157       .  T
C1800      N1802   1.157       .  T
C1805      C1806   1.421       .  A
C1805      C1810   1.420   1_554  A
C1806      C1807   1.412       .  A
C1806      C1811   1.451       .  S
C1807      C1808   1.408       .  A
C1807      C1814   1.449       .  S
C1808      C1809   1.414   1_554  A
C1809      C1810   1.418       .  A
C1809      C1812   1.448       .  S
C1810      C1813   1.452       .  S
C1811      N1818   1.157       .  T
C1812      N1817   1.156       .  T
C1813      N1815   1.158       .  T
C1814      N1816   1.157       .  T
C1819      C1820   1.414       .  A
C1819      C1824   1.411       .  A
C1820      C1821   1.409       .  A
C1820      C1825   1.451       .  S
C1821      C1822   1.413       .  A
C1821      C1828   1.451       .  S
C1822      C1823   1.414       .  A
C1823      C1824   1.409       .  A
C1823      C1826   1.450       .  S
C1824      C1827   1.452       .  S
C1825      N1832   1.157       .  T
C1826      N1831   1.157       .  T
C1827      N1829   1.157       .  T
C1828      N1830   1.157       .  T
C1833      C1834   1.409       .  A
C1833      C1838   1.412       .  A
C1834      C1835   1.411       .  A
C1834      C1839   1.450       .  S
C1835      C1836   1.412       .  A
C1835      C1842   1.449       .  S
C1836      C1837   1.408       .  A
C1837      C1838   1.404       .  A
C1837      C1840   1.451       .  S
C1838      C1841   1.452       .  S
C1839      N1846   1.157       .  T
C1840      N1845   1.157       .  T
C1841      N1843   1.157       .  T
C1842      N1844   1.157       .  T
C1847      C1848   1.414   1_556  A
C1847      C1852   1.415       .  A
C1848      C1849   1.410       .  A
C1848      C1853   1.447       .  S
C1849      C1850   1.416   1_554  A
C1849      C1856   1.453       .  S
C1850      C1851   1.416       .  A
C1851      C1852   1.411       .  A
C1851      C1854   1.452       .  S
C1852      C1855   1.450       .  S
C1853      N1860   1.155       .  T
C1854      N1859   1.158       .  T
C1855      N1857   1.157       .  T
C1856      N1858   1.157       .  T
