geometry optimzed in LAMMPS
_audit_creation_date              2020-12-01 
_audit_creation_method            'lammps2cif' 
_symmetry_space_group_name_H-M    'P1' 
_symmetry_Int_Tables_number       1 
_symmetry_cell_setting            triclinic 
loop_ 
_symmetry_equiv_pos_as_xyz 
  x,y,z 
_cell_length_a                    45.94386732 
_cell_length_b                    45.97445621388097 
_cell_length_c                    74.96388491583538 
_cell_angle_alpha                 89.756808911851 
_cell_angle_beta                  89.95346287031293 
_cell_angle_gamma                 89.96394274824476 
loop_ 
_atom_site_label 
_atom_site_type_symbol 
_atom_site_fract_x 
_atom_site_fract_y 
_atom_site_fract_z 
_atom_site_charge 
In1        In  0.71954654  0.17145526  0.16147272     1.36900
C2          C  0.69669255  0.21968359  0.14751276     0.77200
O3          O  0.69551994  0.14498451  0.14155056    -0.61300
O4          O  0.68259524  0.14141431  0.16869878    -0.52200
C5          C  0.76559521  0.14077743  0.15120500     0.69800
O6          O  0.75481910  0.16102084  0.14189520    -0.47000
C7          C  0.73325844  0.19308449  0.19317103     0.74500
O8          O  0.72273693  0.21221852  0.14462391    -0.58900
O9          O  0.71499088  0.17277947  0.19133946    -0.49000
O10         O  0.68266471  0.20234823  0.15732302    -0.55300
C11         C  0.67810582  0.13402627  0.15270796     0.84700
O12         O  0.75331156  0.13685937  0.16607863    -0.57200
O13         O  0.74514681  0.20134795  0.17886083    -0.60500
In14       In  0.94176071  0.94963809  0.09517836     1.36900
C15         C  0.98962308  0.92751772  0.10957508     0.77200
O16         O  0.91249983  0.92558089  0.11388825    -0.61300
O17         O  0.91648918  0.90939438  0.08752994    -0.52200
C18         C  0.91142294  0.99574341  0.10584107     0.69800
O19         O  0.93364227  0.98677598  0.11409715    -0.47000
C20         C  0.96300058  0.96624743  0.06368790     0.74500
O21         O  0.97982874  0.95215255  0.11396942    -0.58900
O22         O  0.93978878  0.95173147  0.06510300    -0.49000
O23         O  0.97450212  0.91424962  0.09819288    -0.55300
C24         C  0.90529320  0.90632436  0.10281742     0.84700
O25         O  0.90535693  0.98149725  0.09199076    -0.57200
O26         O  0.97463660  0.97277724  0.07832560    -0.60500
In27       In  0.07433155  0.04203098  0.91444333     1.36900
C28         C  0.02667944  0.06422364  0.89897951     0.77200
O29         O  0.04327885  0.01560915  0.93100180    -0.61300
O30         O  0.07399739  0.04203025  0.94448539    -0.52200
C31         C  0.10530826  0.99693992  0.90285140     0.69800
O32         O  0.08960219  0.01225090  0.89269811    -0.47000
C33         C  0.11306343  0.08479041  0.90983008     0.74500
O34         O  0.03450166  0.03819867  0.89665258    -0.58900
O35         O  0.09964226  0.08097455  0.92436921    -0.49000
O36         O  0.04317568  0.07845319  0.90910251    -0.55300
C37         C  0.05300605  0.02439248  0.94575886     0.84700
O38         O  0.10454808  0.00423074  0.91904047    -0.57200
O39         O  0.10743692  0.06612819  0.89807630    -0.60500
In40       In  0.29262207  0.81402770  0.84820132     1.36900
C41         C  0.31468752  0.76649655  0.86380524     0.77200
O42         O  0.26333154  0.78634387  0.83124486    -0.61300
O43         O  0.29690272  0.81045872  0.81852777    -0.52200
C44         C  0.24894110  0.84735897  0.85933964     0.69800
O45         O  0.26186989  0.82955226  0.86943554    -0.47000
C46         C  0.33571627  0.85172053  0.85270164     0.74500
O47         O  0.28887944  0.77474927  0.86663101    -0.58900
O48         O  0.32940893  0.84153267  0.83758189    -0.49000
O49         O  0.32850775  0.78231738  0.85301646    -0.55300
C50         C  0.27615424  0.79272327  0.81684409     0.84700
O51         O  0.25778926  0.84745942  0.84342127    -0.57200
O52         O  0.31942355  0.84321071  0.86519280    -0.60500
In53       In  0.55910661  0.52543220  0.41350842     1.36900
C54         C  0.50884104  0.54404030  0.39966610     0.77200
O55         O  0.53603730  0.49608892  0.43321727    -0.61300
O56         O  0.55371649  0.53562135  0.44270985    -0.52200
C57         C  0.59299772  0.48068880  0.40400862     0.69800
O58         O  0.56876335  0.48578396  0.39667895    -0.47000
C59         C  0.59294895  0.56968796  0.40332996     0.74500
O60         O  0.52142876  0.52139424  0.39402325    -0.58900
O61         O  0.59213654  0.56072217  0.41927011    -0.49000
O62         O  0.52191735  0.55649664  0.41226319    -0.55300
C63         C  0.53933299  0.51296984  0.44629149     0.84700
O64         O  0.59935136  0.49804261  0.41639278    -0.57200
O65         O  0.57725098  0.55541863  0.39273008    -0.60500
In66       In  0.78199006  0.30176279  0.34576873     1.36900
C67         C  0.79871511  0.24975786  0.35769895     0.77200
O68         O  0.75107936  0.28603848  0.32465142    -0.61300
O69         O  0.79354474  0.29861130  0.31673277    -0.87400
C70         C  0.73892138  0.33507977  0.35803593     0.69800
O71         O  0.73882155  0.30776003  0.36004532    -0.47000
C72         C  0.82736636  0.33327545  0.35591792     0.74500
O73         O  0.77983757  0.26474905  0.36583178    -0.58900
O74         O  0.81518131  0.33699800  0.34098282    -0.49000
O75         O  0.80826466  0.26132685  0.34361386    -0.55300
C76         C  0.76938804  0.28802574  0.31216272     0.84700
O77         O  0.76046066  0.34475734  0.34948290    -0.57200
O78         O  0.81614480  0.31368330  0.36552372    -0.60500
In79       In  0.20353151  0.68499786  0.66664159     1.36900
C80         C  0.18328154  0.73466840  0.65274693     0.77200
O81         O  0.17719133  0.65915599  0.64734060    -0.61300
O82         O  0.16325722  0.65912589  0.67423945    -0.52200
C83         C  0.24905692  0.65332383  0.65586731     0.69800
O84         O  0.24189055  0.67695839  0.64844431    -0.47000
C85         C  0.22200448  0.70281387  0.69848574     0.74500
O86         O  0.20305758  0.71995976  0.64535762    -0.58900
O87         O  0.20250409  0.68366443  0.69676947    -0.49000
O88         O  0.17438432  0.72422386  0.66732513    -0.55300
C89         C  0.15871447  0.65042718  0.65854254     0.84700
O90         O  0.23324847  0.64632066  0.66896705    -0.57200
O91         O  0.23240963  0.71204617  0.68394588    -0.60500
In92       In  0.42393585  0.46099651  0.59859786     1.36900
C93         C  0.47332076  0.43913152  0.61111924     0.77200
O94         O  0.40036633  0.43387596  0.61876504    -0.61300
O95         O  0.39312890  0.42446288  0.59147540    -0.52200
C96         C  0.39392475  0.50706735  0.61001484     0.69800
O97         O  0.41435346  0.49573844  0.61887242    -0.47000
C98         C  0.44467192  0.47520943  0.56642545     0.74500
O99         O  0.46422176  0.46394204  0.61568845    -0.58900
O100        O  0.42419060  0.45720469  0.56859865    -0.49000
O101        O  0.45696196  0.42580963  0.60044607    -0.55300
C102        C  0.38790705  0.41783566  0.60753187     0.84700
O103        O  0.38929741  0.49513808  0.59515918    -0.57200
O104        O  0.45351957  0.48677634  0.58065347    -0.60500
In105      In  0.92869883  0.53197858  0.59830686     1.36900
C106        C  0.97737544  0.55242651  0.61321151     0.77200
O107        O  0.95517601  0.50290731  0.58066748    -0.61300
O108        O  0.92697015  0.53334847  0.56826516    -0.52200
C109        C  0.89387455  0.48835651  0.60820291     0.69800
O110        O  0.91985680  0.49019544  0.61362885    -0.47000
C111        C  0.89610643  0.57828096  0.60509886     0.74500
O112        O  0.96267351  0.53228947  0.62036008    -0.58900
O113        O  0.90667281  0.57338858  0.58985508    -0.49000
O114        O  0.96724141  0.56144137  0.59861124    -0.55300
C115        C  0.94569996  0.51355600  0.56627204     0.84700
O116        O  0.88632393  0.50845461  0.59769695    -0.57200
O117        O  0.90171572  0.55909797  0.61668166    -0.60500
In118      In  0.70189358  0.30734106  0.66047525     1.36900
C119        C  0.68091932  0.25740799  0.64829367     0.77200
O120        O  0.73176055  0.28095280  0.67752732    -0.61300
O121        O  0.70219931  0.30949446  0.69045131    -0.52200
C122        C  0.74461120  0.34213609  0.64959198     0.69800
O123        O  0.74311154  0.31581306  0.64488192    -0.47000
C124        C  0.65650775  0.33942263  0.65127263     0.74500
O125        O  0.70112823  0.27101517  0.64039379    -0.58900
O126        O  0.66263597  0.33414086  0.66741780    -0.49000
O127        O  0.67177537  0.26944517  0.66231006    -0.55300
C128        C  0.72205391  0.29063227  0.69206833     0.84700
O129        O  0.72461484  0.35016563  0.65997297    -0.57200
O130        O  0.67362655  0.32819864  0.64006744    -0.60500
In131      In  0.44417975  0.02452964  0.09359936     1.36900
C132        C  0.49354538  0.04302824  0.10827318     0.77200
O133        O  0.47216817  0.00000455  0.07406666    -0.61300
O134        O  0.43863288  0.02667422  0.06372263    -0.52200
C135        C  0.41141759  0.97987458  0.10389556     0.69800
O136        O  0.43702934  0.98346926  0.10955955    -0.47000
C137        C  0.41153940  0.07013395  0.10247539     0.74500
O138        O  0.48086956  0.02026382  0.11366432    -0.58900
O139        O  0.42256007  0.06697412  0.08719411    -0.49000
O140        O  0.48085021  0.05586995  0.09561890    -0.55300
C141        C  0.45961445  0.00989320  0.06038258     0.84700
O142        O  0.40321219  0.99856072  0.09261934    -0.57200
O143        O  0.41684869  0.04963236  0.11322941    -0.60500
In144      In  0.22092186  0.80370798  0.16209244     1.36900
C145        C  0.20077846  0.75475895  0.14785869     0.77200
O146        O  0.24851579  0.77863769  0.18166168    -0.61300
O147        O  0.21150534  0.80108182  0.19140998    -0.52200
C148        C  0.26605428  0.83698571  0.15283383     0.69800
O149        O  0.26364359  0.81092748  0.14778834    -0.47000
C150        C  0.17667959  0.83703419  0.15190808     0.74500
O151        O  0.22250699  0.76797694  0.14139112    -0.58900
O152        O  0.18420572  0.83460082  0.16804887    -0.49000
O153        O  0.19016058  0.76638632  0.16157507    -0.55300
C154        C  0.23245415  0.78424898  0.19486763     0.84700
O155        O  0.24595732  0.84545432  0.16302350    -0.57200
O156        O  0.19247555  0.82323305  0.14108111    -0.60500
In157      In  0.27994522  0.67419322  0.34823828     1.36900
C158        C  0.30220619  0.72376999  0.36044274     0.77200
O159        O  0.30683236  0.64925527  0.36793481    -0.61300
O160        O  0.31907433  0.64678135  0.34077067    -0.52200
C161        C  0.23288746  0.64532737  0.35951915     0.69800
O162        O  0.24028079  0.66960452  0.36586414    -0.47000
C163        C  0.26329125  0.69255337  0.31608583     0.74500
O164        O  0.28363605  0.70926210  0.36916681    -0.58900
O165        O  0.27841853  0.66986413  0.31832988    -0.49000
O166        O  0.30945164  0.71264014  0.34575950    -0.55300
C167        C  0.32443201  0.63924653  0.35663773     0.84700
O168        O  0.24907548  0.63639537  0.34711433    -0.57200
O169        O  0.25556445  0.70483896  0.33034731    -0.60500
In170      In  0.05558542  0.45594889  0.41448049     1.36900
C171        C  0.00491926  0.43759933  0.40140515     0.77200
O172        O  0.07639658  0.42774936  0.39383390    -0.61300
O173        O  0.08841183  0.42039226  0.42068446    -0.52200
C174        C  0.08499900  0.50385283  0.40561803     0.69800
O175        O  0.06270375  0.49547686  0.39728650    -0.47000
C176        C  0.03585829  0.46790277  0.44692185     0.74500
O177        O  0.02012348  0.45647784  0.39344434    -0.58900
O178        O  0.05137516  0.44582198  0.44371245    -0.49000
O179        O  0.01566266  0.42858670  0.41583941    -0.55300
C180        C  0.09117829  0.41281834  0.40462157     0.84700
O181        O  0.09192053  0.48793687  0.41869247    -0.57200
O182        O  0.03164945  0.48440103  0.43365660    -0.60500
In183      In  0.79663263  0.19321674  0.84441015     1.36900
C184        C  0.80953165  0.24562941  0.85744311     0.77200
O185        O  0.83131199  0.18033294  0.86381275    -0.61300
O186        O  0.83271177  0.16059898  0.83844109    -0.52200
C187        C  0.75208528  0.15963391  0.85477082     0.69800
O188        O  0.76986120  0.15223841  0.84280125    -0.47000
C189        C  0.78177078  0.20957018  0.81163768     0.74500
O190        O  0.79566714  0.22685857  0.86638300    -0.58900
O191        O  0.80648678  0.19895557  0.81521092    -0.49000
O192        O  0.81576346  0.23785273  0.84180164    -0.55300
C193        C  0.84422074  0.16287880  0.85364708     0.84700
O194        O  0.75703749  0.18432338  0.86138594    -0.57200
O195        O  0.76463448  0.21105836  0.82477515    -0.60500
In196      In  0.56542519  0.97248098  0.90481947     1.36900
C197        C  0.51687986  0.95653094  0.88769820     0.77200
O198        O  0.59280251  0.94594617  0.88652214    -0.61300
O199        O  0.59497049  0.93646970  0.91429502    -0.52200
C200        C  0.59846220  0.01792677  0.89553883     0.69800
O201        O  0.57718598  0.00949121  0.88625924    -0.47000
C202        C  0.54356271  0.97896444  0.93755647     0.74500
O203        O  0.51967420  0.98131646  0.89459620    -0.58900
O204        O  0.55383654  0.95513766  0.93209433    -0.49000
O205        O  0.53909856  0.94077738  0.88897651    -0.55300
C206        C  0.60321849  0.93000092  0.89869545     0.84700
O207        O  0.60227587  0.00350868  0.90967427    -0.57200
O208        O  0.54533445  0.99952043  0.92643625    -0.60500
In209      In  0.44627318  0.53688944  0.91289617     1.36900
C210        C  0.49448829  0.55763936  0.89791943     0.77200
O211        O  0.42234835  0.56495531  0.89326320    -0.61300
O212        O  0.41754691  0.57469383  0.92072230    -0.52200
C213        C  0.41311971  0.49250413  0.90281699     0.69800
O214        O  0.43622135  0.49947316  0.89477393    -0.47000
C215        C  0.46811552  0.52064880  0.94450713     0.74500
O216        O  0.48353639  0.53367423  0.89320828    -0.58900
O217        O  0.44830249  0.53951832  0.94294268    -0.49000
O218        O  0.48074328  0.57044713  0.91015027    -0.55300
C219        C  0.41135284  0.58150250  0.90482849     0.84700
O220        O  0.40752828  0.50774566  0.91632886    -0.57200
O221        O  0.47616632  0.50967102  0.92993801    -0.60500
In222      In  0.22246011  0.31572026  0.84770608     1.36900
C223        C  0.20758848  0.26684896  0.86497287     0.77200
O224        O  0.19838345  0.34420708  0.86691598    -0.61300
O225        O  0.18675238  0.34669870  0.83956858    -0.52200
C226        C  0.26832561  0.34696394  0.85749688     0.69800
O227        O  0.25407000  0.35215514  0.84345569    -0.47000
C228        C  0.22868392  0.29610258  0.81441157     0.74500
O229        O  0.18990028  0.28648079  0.86062965    -0.58900
O230        O  0.20423835  0.30185543  0.82115566    -0.49000
O231        O  0.23356197  0.27206506  0.86053322    -0.55300
C232        C  0.18189806  0.35526509  0.85528022     0.84700
O233        O  0.25965852  0.32505972  0.86622768    -0.57200
O234        O  0.24992846  0.30123923  0.82452666    -0.60500
In235      In  0.57038799  0.45285051  0.09748164     1.36900
C236        C  0.51823891  0.43750725  0.10983880     0.77200
O237        O  0.55269821  0.48441318  0.07736706    -0.61300
O238        O  0.56660590  0.44320652  0.06806945    -0.52200
C239        C  0.60447865  0.49679407  0.10766089     0.69800
O240        O  0.57785166  0.49558730  0.11181546    -0.47000
C241        C  0.60119233  0.40624960  0.10731573     0.74500
O242        O  0.53439864  0.45509720  0.11813875    -0.58900
O243        O  0.60151418  0.41617489  0.09158509    -0.49000
O244        O  0.52882940  0.42833351  0.09543075    -0.55300
C245        C  0.55515311  0.46741909  0.06429339     0.84700
O246        O  0.61320124  0.47573599  0.09836060    -0.57200
O247        O  0.58562897  0.42059986  0.11800203    -0.60500
In248      In  0.79470862  0.67517975  0.16382518     1.36900
C249        C  0.80896179  0.72674121  0.15036422     0.77200
O250        O  0.76288396  0.69319646  0.18353763    -0.61300
O251        O  0.80440250  0.68027052  0.19306290    -0.52200
C252        C  0.75173087  0.64084773  0.15276891     0.69800
O253        O  0.75320525  0.66742396  0.14858129    -0.47000
C254        C  0.84161840  0.64535690  0.15387150     0.74500
O255        O  0.79140113  0.70983490  0.14262689    -0.58900
O256        O  0.83033689  0.64229144  0.16913907    -0.49000
O257        O  0.81849244  0.71742145  0.16508387    -0.55300
C258        C  0.78009701  0.69170763  0.19659536     0.84700
O259        O  0.77195707  0.63215042  0.16282543    -0.57200
O260        O  0.82866087  0.66326275  0.14390456    -0.60500
In261      In  0.05205084  0.95921724  0.59499015     1.36900
C262        C  0.99981806  0.94851163  0.60891361     0.77200
O263        O  0.04030540  0.99106431  0.57317898    -0.61300
O264        O  0.04683834  0.94702269  0.56618160    -0.52200
C265        C  0.08623590  0.00075378  0.60842096     0.69800
O266        O  0.05884215  0.00274965  0.60833486    -0.47000
C267        C  0.07983875  0.91006212  0.60302992     0.74500
O268        O  0.01894146  0.96278492  0.61721888    -0.58900
O269        O  0.08675365  0.92542140  0.58967836    -0.49000
O270        O  0.00726046  0.94082411  0.59346403    -0.55300
C271        C  0.03967241  0.97214950  0.56106953     0.84700
O272        O  0.09591063  0.97774327  0.60153359    -0.57200
O273        O  0.05901409  0.92000472  0.61208386    -0.60500
In274      In  0.27562695  0.18141039  0.66276446     1.36900
C275        C  0.29466290  0.23189692  0.64972409     0.77200
O276        O  0.24665290  0.20595771  0.68158718    -0.61300
O277        O  0.28349601  0.18434733  0.69235347    -0.52200
C278        C  0.23051966  0.14810361  0.65366188     0.69800
O279        O  0.23621554  0.17171498  0.64571553    -0.47000
C280        C  0.31953053  0.14754464  0.65214687     0.74500
O281        O  0.27175624  0.21989295  0.64398710    -0.58900
O282        O  0.31117633  0.14840662  0.66819451    -0.49000
O283        O  0.30729939  0.21808315  0.66205606    -0.55300
C284        C  0.26160373  0.20026960  0.69526799     0.84700
O285        O  0.24757255  0.14209443  0.66631122    -0.57200
O286        O  0.30493703  0.16333016  0.64166877    -0.60500
In287      In  0.93751745  0.02547646  0.40638712     1.36900
C288        C  0.98587928  0.04651979  0.39171032     0.77200
O289        O  0.90858725  0.04917708  0.38731947    -0.61300
O290        O  0.91062890  0.06447232  0.41399927    -0.52200
C291        C  0.90641221  0.97985795  0.39588342     0.69800
O292        O  0.92678908  0.99031428  0.38655759    -0.47000
C293        C  0.95670607  0.01234087  0.43892270     0.74500
O294        O  0.97974327  0.01978159  0.39125085    -0.58900
O295        O  0.93601365  0.02989130  0.43627883    -0.49000
O296        O  0.96731821  0.06202947  0.39953938    -0.55300
C297        C  0.90024537  0.06783757  0.39851852     0.84700
O298        O  0.90276568  0.99223723  0.41068482    -0.57200
O299        O  0.96706448  0.00127479  0.42494236    -0.60500
In300      In  0.71137373  0.80245507  0.34622053     1.36900
C301        C  0.69245137  0.75218761  0.35982511     0.77200
O302        O  0.68506982  0.82907906  0.36533107    -0.61300
O303        O  0.67083259  0.82793488  0.33854433    -0.52200
C304        C  0.75776949  0.83411826  0.35505695     0.69800
O305        O  0.75002324  0.81187087  0.36378259    -0.47000
C306        C  0.72948233  0.78308896  0.31481092     0.74500
O307        O  0.70953466  0.76864266  0.36825688    -0.58900
O308        O  0.70988797  0.80228322  0.31627313    -0.49000
O309        O  0.68508634  0.76160510  0.34469578    -0.55300
C310        C  0.66640593  0.83729592  0.35411139     0.84700
O311        O  0.74206022  0.83971349  0.34169160    -0.57200
O312        O  0.74025177  0.77457707  0.32942641    -0.60500
In313      In  0.55284089  0.02735948  0.59681541     1.36900
C314        C  0.50311018  0.04798814  0.60998920     0.77200
O315        O  0.57627547  0.05400430  0.61725725    -0.61300
O316        O  0.58001795  0.06697354  0.59020873    -0.52200
C317        C  0.58426890  0.98076920  0.60615174     0.69800
O318        O  0.55977063  0.98630551  0.61300217    -0.47000
C319        C  0.53392950  0.01138412  0.56461322     0.74500
O320        O  0.51779447  0.02879897  0.61808543    -0.58900
O321        O  0.55412515  0.02972898  0.56670133    -0.49000
O322        O  0.51400488  0.05640792  0.59543270    -0.55300
C323        C  0.58638833  0.07217265  0.60626690     0.84700
O324        O  0.59229335  0.99884970  0.59444945    -0.57200
O325        O  0.52424403  0.00066950  0.57896273    -0.60500
In326      In  0.78115257  0.81065735  0.66179643     1.36900
C327        C  0.80221976  0.76327743  0.64593755     0.77200
O328        O  0.80102893  0.84573867  0.64517462    -0.61300
O329        O  0.82131612  0.83558992  0.66985239    -0.52200
C330        C  0.73298206  0.83745638  0.65036423     0.69800
O331        O  0.74843140  0.82156229  0.64048383    -0.47000
C332        C  0.77107045  0.79127799  0.69468067     0.74500
O333        O  0.77532416  0.76794443  0.64760657    -0.58900
O334        O  0.78425350  0.81484853  0.69161069    -0.49000
O335        O  0.81819581  0.78310253  0.65203241    -0.55300
C336        C  0.82172122  0.85072564  0.65575667     0.84700
O337        O  0.74173878  0.83892377  0.66627703    -0.57200
O338        O  0.76270891  0.77805399  0.68092738    -0.60500
In339      In  0.94733667  0.46936271  0.90776628     1.36900
C340        C  0.99910098  0.45357798  0.89513958     0.77200
O341        O  0.97376137  0.49453295  0.92717837    -0.61300
O342        O  0.94855964  0.45880961  0.93685203    -0.52200
C343        C  0.91673382  0.51550718  0.89728203     0.69800
O344        O  0.92905370  0.49857584  0.88649241    -0.47000
C345        C  0.91213413  0.42524154  0.90001136     0.74500
O346        O  0.98619859  0.47608853  0.88948540    -0.58900
O347        O  0.91097355  0.43779729  0.91494003    -0.49000
O348        O  0.98535244  0.43962204  0.90691040    -0.55300
C349        C  0.96667539  0.47871721  0.94031293     0.84700
O350        O  0.92082412  0.50935458  0.91345113    -0.57200
O351        O  0.93029661  0.43600476  0.88931313    -0.60500
In352      In  0.72033310  0.69324307  0.85072802     1.36900
C353        C  0.69925574  0.74240788  0.86419373     0.77200
O354        O  0.74775097  0.71958857  0.83180898    -0.61300
O355        O  0.71094576  0.69713790  0.82161845    -0.52200
C356        C  0.76691064  0.66288273  0.86044972     0.69800
O357        O  0.75444068  0.68051427  0.87080234    -0.47000
C358        C  0.67903390  0.65465897  0.85843334     0.74500
O359        O  0.72409217  0.73287121  0.86848421    -0.58900
O360        O  0.68759572  0.65914830  0.84267086    -0.49000
O361        O  0.68567382  0.72667124  0.85331925    -0.55300
C362        C  0.73222175  0.71370400  0.81840203     0.84700
O363        O  0.75595227  0.66141155  0.84508757    -0.57200
O364        O  0.69234172  0.66915078  0.87008386    -0.60500
In365      In  0.07214496  0.52721378  0.09380026     1.36900
C366        C  0.02186528  0.54557708  0.10738273     0.77200
O367        O  0.09424476  0.55497342  0.11400480    -0.61300
O368        O  0.09910900  0.56686660  0.08684068    -0.52200
C369        C  0.10452049  0.48210563  0.10385016     0.69800
O370        O  0.07922948  0.48636551  0.10986428    -0.47000
C371        C  0.05538857  0.51093429  0.06144013     0.74500
O372        O  0.03803747  0.52773207  0.11552094    -0.58900
O373        O  0.07438678  0.53034226  0.06391590    -0.49000
O374        O  0.03142646  0.55369418  0.09240628    -0.55300
C375        C  0.10501429  0.57253702  0.10289376     0.84700
O376        O  0.11273771  0.50045922  0.09238811    -0.57200
O377        O  0.04570092  0.49935409  0.07553219    -0.60500
In378      In  0.29316796  0.30169381  0.15913058     1.36900
C379        C  0.31415656  0.25297481  0.14493765     0.77200
O380        O  0.31694543  0.33116050  0.14032184    -0.61300
O381        O  0.33277997  0.32778784  0.16684024    -0.52200
C382        C  0.24759467  0.33286979  0.14815720     0.69800
O383        O  0.25952685  0.31386848  0.13848247    -0.47000
C384        C  0.27832281  0.28286627  0.19153396     0.74500
O385        O  0.28770707  0.26012907  0.14349897    -0.58900
O386        O  0.29345951  0.30545173  0.18907730    -0.49000
O387        O  0.32954250  0.27068819  0.15356676    -0.55300
C388        C  0.33588378  0.33888471  0.15150033     0.84700
O389        O  0.25825942  0.33487882  0.16357298    -0.57200
O390        O  0.27069324  0.27021001  0.17740686    -0.60500
In391      In  0.43275137  0.95446450  0.40986798     1.36900
C392        C  0.48433714  0.93740669  0.39721528     0.77200
O393        O  0.45106568  0.98583980  0.43003183    -0.61300
O394        O  0.43493814  0.94548901  0.43941141    -0.52200
C395        C  0.39794786  0.99649499  0.39732007     0.69800
O396        O  0.42513186  0.99661559  0.39479262    -0.47000
C397        C  0.40246730  0.90766905  0.40063339     0.74500
O398        O  0.46950593  0.95704305  0.38962790    -0.58900
O399        O  0.40036534  0.91892324  0.41593087    -0.49000
O400        O  0.47300972  0.92745412  0.41127312    -0.55300
C401        C  0.44746566  0.96904873  0.44319677     0.84700
O402        O  0.38893252  0.97529695  0.40646924    -0.57200
O403        O  0.41958547  0.92072213  0.39016123    -0.60500
In404      In  0.21178269  0.18340561  0.34528214     1.36900
C405        C  0.19079339  0.23155631  0.36033757     0.77200
O406        O  0.24063602  0.21025046  0.32735586    -0.61300
O407        O  0.20636549  0.18613908  0.31564637    -0.52200
C408        C  0.25567002  0.14836324  0.35413764     0.69800
O409        O  0.25063583  0.17177107  0.36238030    -0.47000
C410        C  0.16752585  0.14809598  0.35230576     0.74500
O411        O  0.21459449  0.22039640  0.36531406    -0.58900
O412        O  0.17225515  0.15852543  0.33699336    -0.49000
O413        O  0.17832919  0.21797575  0.34799730    -0.55300
C414        C  0.22715138  0.20359615  0.31330296     0.84700
O415        O  0.23892299  0.14372339  0.34114141    -0.57200
O416        O  0.18593137  0.15517222  0.36399454    -0.60500
C417        C  0.29816917  0.07820700  0.35813808    -0.11200
C418        C  0.31905180  0.08510283  0.37109004     0.05900
C419        C  0.31978350  0.11346511  0.37802261    -0.10000
C420        C  0.29944175  0.13433550  0.37240553    -0.11600
C421        C  0.27841361  0.12729191  0.35952467    -0.01400
C422        C  0.27825998  0.09914255  0.35229469    -0.10500
C423        C  0.33947282  0.06243686  0.37760106     0.05900
H424        H  0.33561435  0.11921664  0.38810166     0.07800
H425        H  0.29999961  0.15585610  0.37822184     0.11300
H426        H  0.26225845  0.09305552  0.34239341     0.11600
H427        H  0.29728846  0.05655644  0.35252483     0.07900
C428        C  0.32882190  0.03541430  0.38347288    -0.11200
C429        C  0.34788863  0.01406868  0.38986138    -0.10500
C430        C  0.37805525  0.01909962  0.39022512    -0.01400
C431        C  0.38878646  0.04589301  0.38398833    -0.11600
C432        C  0.36961754  0.06750435  0.37791767    -0.10000
H433        H  0.30566491  0.03101351  0.38338633     0.07900
H434        H  0.33901408  0.99355000  0.39449020     0.11600
H435        H  0.41192459  0.05029309  0.38407891     0.11300
H436        H  0.37832866  0.08809395  0.37329774     0.07900
C437        C  0.26896241  0.27753329  0.24167192    -0.11200
C438        C  0.25618923  0.24990579  0.24362292     0.05900
C439        C  0.25050284  0.23344669  0.22824763    -0.10000
C440        C  0.25742580  0.24434373  0.21134400    -0.11600
C441        C  0.27037319  0.27183765  0.20942982    -0.01400
C442        C  0.27602643  0.28837605  0.22474399    -0.10500
C443        C  0.24874843  0.23823794  0.26158092     0.05900
H444        H  0.24108860  0.21194002  0.22929566     0.07800
H445        H  0.25296993  0.23104482  0.19975743     0.11300
H446        H  0.28584225  0.30969276  0.22363098     0.11600
H447        H  0.27322838  0.29092735  0.25323903     0.07900
C448        C  0.26756768  0.24239837  0.27614566    -0.11200
C449        C  0.26056627  0.23118043  0.29298741    -0.10500
C450        C  0.23473039  0.21543705  0.29556653    -0.01400
C451        C  0.21588626  0.21131816  0.28106134    -0.11600
C452        C  0.22277972  0.22266184  0.26426865    -0.10000
H453        H  0.28788903  0.25397148  0.27446575     0.07900
H454        H  0.27549388  0.23461722  0.30396535     0.11600
H455        H  0.19568002  0.19951822  0.28272653     0.11300
H456        H  0.20757782  0.21949861  0.25340529     0.07900
C457        C  0.19087913  0.39254665  0.14721901    -0.11200
C458        C  0.18198890  0.39214422  0.12930735     0.05900
C459        C  0.19383950  0.37115752  0.11781149    -0.10000
C460        C  0.21454854  0.35124943  0.12404237    -0.11600
C461        C  0.22392763  0.35211157  0.14185552    -0.01400
C462        C  0.21172560  0.37280235  0.15341199    -0.10500
C463        C  0.16134593  0.41432677  0.12248200     0.05900
H464        H  0.18717027  0.37027291  0.10396817     0.07800
H465        H  0.22365458  0.33559028  0.11483953     0.11300
H466        H  0.21868748  0.37408435  0.16718591     0.11600
H467        H  0.18233514  0.40870387  0.15630241     0.07900
C468        C  0.13604488  0.42139828  0.13209085    -0.11200
C469        C  0.11709416  0.44295086  0.12580452    -0.10500
C470        C  0.12339075  0.45810771  0.10996620    -0.01400
C471        C  0.14864406  0.45102103  0.10036592    -0.11600
C472        C  0.16732769  0.42920290  0.10649552    -0.10000
H473        H  0.13090769  0.41017136  0.14442727     0.07900
H474        H  0.09783840  0.44816667  0.13350768     0.11600
H475        H  0.15404239  0.46247429  0.08814549     0.11300
H476        H  0.18686646  0.42442580  0.09895549     0.07900
C477        C  0.00976006  0.51036190  0.97843133    -0.11200
C478        C  0.00667451  0.48880171  0.99169104     0.05900
C479        C  0.98966704  0.46412323  0.98788897    -0.10000
C480        C  0.97601430  0.46119834  0.97134532    -0.11600
C481        C  0.97945865  0.48263783  0.95814632    -0.01400
C482        C  0.99649758  0.50718267  0.96181098    -0.10500
C483        C  0.02048419  0.49251957  0.00951621     0.05900
H484        H  0.98718334  0.44678661  0.99759346     0.07800
H485        H  0.96327093  0.44187358  0.96875269     0.11300
H486        H  0.99949314  0.52404893  0.95182996     0.11600
H487        H  0.02205544  0.52997169  0.98093490     0.07900
C488        C  0.04711091  0.50740003  0.01129001    -0.11200
C489        C  0.05881862  0.51292093  0.02814747    -0.10500
C490        C  0.04447700  0.50316296  0.04357612    -0.01400
C491        C  0.01859994  0.48724110  0.04184694    -0.11600
C492        C  0.00659799  0.48218046  0.02503517    -0.10000
H493        H  0.05888497  0.51502608  0.99965675     0.07900
H494        H  0.07893781  0.52504001  0.02912277     0.11600
H495        H  0.00701711  0.47959369  0.05355784     0.11300
H496        H  0.98590024  0.47106021  0.02431013     0.07900
C497        C  0.86612256  0.56124259  0.86931016    -0.11200
C498        C  0.85878933  0.58387624  0.88109077     0.05900
C499        C  0.87203351  0.58445099  0.89802202    -0.10000
C500        C  0.89124308  0.56243408  0.90323558    -0.11600
C501        C  0.89815037  0.53981354  0.89147612    -0.01400
C502        C  0.88583193  0.53965489  0.87438712    -0.10500
C503        C  0.83655171  0.60596293  0.87596885     0.05900
H504        H  0.86749412  0.60181652  0.90732122     0.07800
H505        H  0.90064060  0.56304437  0.91647443     0.11300
H506        H  0.89060314  0.52220662  0.86516387     0.11600
H507        H  0.85597249  0.55956653  0.85633896     0.07900
C508        C  0.83317652  0.61456687  0.85804072    -0.11200
C509        C  0.81075751  0.63341593  0.85304404    -0.10500
C510        C  0.79174760  0.64471667  0.86590836    -0.01400
C511        C  0.79565541  0.63717369  0.88387867    -0.11600
C512        C  0.81760455  0.61772666  0.88884455    -0.10000
H513        H  0.84771857  0.60662428  0.84779293     0.07900
H514        H  0.80823560  0.63913463  0.83909799     0.11600
H515        H  0.78100474  0.64541314  0.89399856     0.11300
H516        H  0.81903040  0.61123745  0.90270978     0.07900
C517        C  0.74857045  0.74139925  0.73245186    -0.11200
C518        C  0.75543705  0.75817196  0.74751666     0.05900
C519        C  0.76776174  0.78587957  0.74500355    -0.10000
C520        C  0.77300024  0.79661479  0.72783018    -0.11600
C521        C  0.76584878  0.77992996  0.71283205    -0.01400
C522        C  0.75366497  0.75220297  0.71529347    -0.10500
C523        C  0.74954882  0.74688036  0.76575783     0.05900
H524        H  0.77293298  0.79949823  0.75632083     0.07800
H525        H  0.78237616  0.81806885  0.72628638     0.11300
H526        H  0.74816257  0.73877735  0.70393637     0.11600
H527        H  0.73951934  0.71979235  0.73392334     0.07900
C528        C  0.72407657  0.73096362  0.76932878    -0.11200
C529        C  0.71852848  0.72021015  0.78643898    -0.10500
C530        C  0.73825702  0.72523973  0.80037734    -0.01400
C531        C  0.76361543  0.74131592  0.79691155    -0.11600
C532        C  0.76925787  0.75196578  0.77975442    -0.10000
H533        H  0.70819688  0.72710393  0.75892792     0.07900
H534        H  0.69870163  0.70807147  0.78877741     0.11600
H535        H  0.77921824  0.74545299  0.80743215     0.11300
H536        H  0.78924027  0.76382616  0.77739328     0.07900
C537        C  0.52421295  0.00522028  0.51446538    -0.11200
C538        C  0.49683068  0.99159443  0.51314715     0.05900
C539        C  0.48247082  0.98355123  0.52901643    -0.10000
C540        C  0.49491644  0.98936501  0.54567010    -0.11600
C541        C  0.52185558  0.00365727  0.54691621    -0.01400
C542        C  0.53645626  0.01139029  0.53114102    -0.10500
C543        C  0.48316263  0.98624421  0.49535041     0.05900
H544        H  0.46124298  0.97341230  0.52862109     0.07800
H545        H  0.48304667  0.98331749  0.55762275     0.11300
H546        H  0.55733299  0.02223615  0.53169602     0.11600
H547        H  0.53629518  0.01113592  0.50258192     0.07900
C548        C  0.48698111  0.00615966  0.48121154    -0.11200
C549        C  0.47473604  0.00094996  0.46443218    -0.10500
C550        C  0.45827027  0.97575725  0.46134845    -0.01400
C551        C  0.45389285  0.95609495  0.47549606    -0.11600
C552        C  0.46619234  0.96125432  0.49228280    -0.10000
H553        H  0.49933315  0.02592718  0.48310595     0.07900
H554        H  0.47853108  0.01649312  0.45377622     0.11600
H555        H  0.44144144  0.93639471  0.47349197     0.11300
H556        H  0.46298871  0.94522175  0.50272707     0.07900
C557        C  0.64670748  0.92700285  0.60779473    -0.11200
C558        C  0.64040034  0.91083037  0.62328814     0.05900
C559        C  0.61430772  0.91666811  0.63247338    -0.10000
C560        C  0.59553123  0.93879795  0.62663370    -0.11600
C561        C  0.60254316  0.95565527  0.61155379    -0.01400
C562        C  0.62806473  0.94917659  0.60204088    -0.10500
C563        C  0.66202302  0.88953630  0.63040587     0.05900
H564        H  0.60859519  0.90436414  0.64431872     0.07800
H565        H  0.57592695  0.94322646  0.63418761     0.11300
H566        H  0.63399653  0.96172420  0.59033054     0.11600
H567        H  0.66672247  0.92337561  0.60049699     0.07900
C568        C  0.67846349  0.87198905  0.61881036    -0.11200
C569        C  0.70090580  0.85434330  0.62537451    -0.10500
C570        C  0.70746456  0.85387462  0.64367433    -0.01400
C571        C  0.69044858  0.87058422  0.65535371    -0.11600
C572        C  0.66793891  0.88815490  0.64880549    -0.10000
H573        H  0.67424749  0.87222024  0.60459865     0.07900
H574        H  0.71362240  0.84163819  0.61605479     0.11600
H575        H  0.69502565  0.87066663  0.66952783     0.11300
H576        H  0.65598558  0.90161601  0.65809475     0.07900
C577        C  0.61491214  0.88245052  0.38198613    -0.11200
C578        C  0.59158034  0.88740387  0.37023312     0.05900
C579        C  0.59399037  0.87745360  0.35255301    -0.10000
C580        C  0.61865179  0.86178900  0.34705682    -0.11600
C581        C  0.64130477  0.85581502  0.35913134    -0.01400
C582        C  0.63935073  0.86676732  0.37654339    -0.10500
C583        C  0.56429534  0.90114797  0.37692940     0.05900
H584        H  0.57636613  0.88077811  0.34319167     0.07800
H585        H  0.61962262  0.85364278  0.33352346     0.11300
H586        H  0.65656616  0.86281091  0.38610459     0.11600
H587        H  0.61409998  0.89037101  0.39556974     0.07900
C588        C  0.55376930  0.89373242  0.39396512    -0.11200
C589        C  0.52816797  0.90600054  0.40051937    -0.10500
C590        C  0.51226284  0.92603127  0.39024782    -0.01400
C591        C  0.52264858  0.93368424  0.37321511    -0.11600
C592        C  0.54839370  0.92124110  0.36657566    -0.10000
H593        H  0.56504952  0.87791082  0.40215801     0.07900
H594        H  0.52063766  0.89948939  0.41364859     0.11600
H595        H  0.51069890  0.94893994  0.36497213     0.11300
H596        H  0.55598145  0.92749670  0.35341523     0.07900
C597        C  0.03963669  0.10186174  0.37461998    -0.11200
C598        C  0.06410256  0.08461089  0.37106137     0.05900
C599        C  0.06253748  0.05439310  0.37371156    -0.10000
C600        C  0.03675978  0.04163784  0.37993824    -0.11600
C601        C  0.01253921  0.05909018  0.38395673    -0.01400
C602        C  0.01418341  0.08925477  0.38115720    -0.10500
C603        C  0.09140374  0.09863405  0.36529266     0.05900
H604        H  0.08125598  0.04076701  0.37100413     0.07800
H605        H  0.03599403  0.01833603  0.38204529     0.11300
H606        H  0.99578796  0.10317382  0.38412669     0.11600
H607        H  0.04051047  0.12522374  0.37278685     0.07900
C608        C  0.09152763  0.11735653  0.35046626    -0.11200
C609        C  0.11671970  0.13262313  0.34587467    -0.10500
C610        C  0.14193756  0.12996186  0.35631601    -0.01400
C611        C  0.14191922  0.11100129  0.37104354    -0.11600
C612        C  0.11690133  0.09515834  0.37537517    -0.10000
H613        H  0.07199594  0.12038822  0.34258021     0.07900
H614        H  0.11618751  0.14728290  0.33453201     0.11600
H615        H  0.16115451  0.10864651  0.37927298     0.11300
H616        H  0.11708873  0.08103160  0.38697501     0.07900
C617        C  0.87106515  0.92269372  0.36673037    -0.11200
C618        C  0.84839281  0.91283439  0.37782602     0.05900
C619        C  0.84579707  0.92441428  0.39506094    -0.10000
C620        C  0.86511612  0.94568781  0.40099809    -0.11600
C621        C  0.88753526  0.95582899  0.38986305    -0.01400
C622        C  0.89056136  0.94392514  0.37272848    -0.10500
C623        C  0.82685480  0.89122378  0.37139797     0.05900
H624        H  0.82831100  0.91753895  0.40380991     0.07800
H625        H  0.86215869  0.95458505  0.41423603     0.11300
H626        H  0.90764096  0.95139722  0.36386222     0.11600
H627        H  0.87367096  0.91398367  0.35342322     0.07900
C628        C  0.81421322  0.89415924  0.35442540    -0.11200
C629        C  0.79220785  0.87516143  0.34895946    -0.10500
C630        C  0.78260593  0.85268409  0.36028297    -0.01400
C631        C  0.79593785  0.84911923  0.37699738    -0.11600
C632        C  0.81772065  0.86830147  0.38253999    -0.10000
H633        H  0.82064710  0.91176057  0.34562203     0.07900
H634        H  0.78233066  0.87838492  0.33598535     0.11600
H635        H  0.78898950  0.83196879  0.38598570     0.11300
H636        H  0.82730669  0.86535981  0.39562185     0.07900
C637        C  0.38140592  0.09265346  0.65067390    -0.11200
C638        C  0.39551319  0.10040387  0.63463171     0.05900
C639        C  0.38363490  0.12324254  0.62437287    -0.10000
C640        C  0.35851984  0.13775857  0.62988126    -0.11600
C641        C  0.34491719  0.13044118  0.64603619    -0.01400
C642        C  0.35651618  0.10770152  0.65638724    -0.10500
C643        C  0.42261003  0.08525834  0.62857515     0.05900
H644        H  0.39408618  0.13054196  0.61221067     0.07800
H645        H  0.35024126  0.15540285  0.62172002     0.11300
H646        H  0.34630605  0.10153110  0.66887388     0.11600
H647        H  0.38947715  0.07490697  0.65880983     0.07900
C648        C  0.44318483  0.07434844  0.64087097    -0.11200
C649        C  0.46911867  0.06142341  0.63493607    -0.10500
C650        C  0.47524638  0.05974994  0.61662500    -0.01400
C651        C  0.45471535  0.07025252  0.60437770    -0.11600
C652        C  0.42859630  0.08241072  0.61023808    -0.10000
H653        H  0.43967505  0.07643593  0.65509202     0.07900
H654        H  0.48475598  0.05359406  0.64463239     0.11600
H655        H  0.45878838  0.06885023  0.59016226     0.11300
H656        H  0.41309455  0.08957671  0.60028910     0.07900
C657        C  0.92550061  0.91470335  0.61350880    -0.11200
C658        C  0.91953879  0.91830649  0.63175922     0.05900
C659        C  0.93966430  0.93347514  0.64235447    -0.10000
C660        C  0.96542867  0.94436699  0.63485613    -0.11600
C661        C  0.97152922  0.94005280  0.61668816    -0.01400
C662        C  0.95114099  0.92545349  0.60607686    -0.10500
C663        C  0.89305984  0.90480306  0.63957848     0.05900
H664        H  0.93557448  0.93671294  0.65644114     0.07800
H665        H  0.98088619  0.95545335  0.64333726     0.11300
H666        H  0.95533418  0.92166219  0.59204817     0.11600
H667        H  0.91077853  0.90264082  0.60503732     0.07900
C668        C  0.86691250  0.90467435  0.62987423    -0.11200
C669        C  0.84327096  0.88814724  0.63566072    -0.10500
C670        C  0.84513757  0.87151484  0.65135364    -0.01400
C671        C  0.87051013  0.87310737  0.66174747    -0.11600
C672        C  0.89432129  0.88961617  0.65589646    -0.10000
H673        H  0.86503794  0.91667521  0.61746005     0.07900
H674        H  0.82385438  0.88758444  0.62748534     0.11600
H675        H  0.87246172  0.86051013  0.67393599     0.11300
H676        H  0.91420783  0.88918738  0.66363420     0.07900
C677        C  0.96915148  0.01375275  0.48884639    -0.11200
C678        C  0.99296863  0.99473159  0.49072178     0.05900
C679        C  0.00401158  0.98089012  0.47546179    -0.10000
C680        C  0.99183859  0.98627410  0.45870632    -0.11600
C681        C  0.96838348  0.00562697  0.45681648    -0.01400
C682        C  0.95696682  0.01914383  0.47205616    -0.10500
C683        C  0.00625286  0.98928352  0.50850127     0.05900
H684        H  0.02248364  0.96635388  0.47641021     0.07800
H685        H  0.00110870  0.97557284  0.44716250     0.11300
H686        H  0.93882077  0.03406923  0.47097701     0.11600
H687        H  0.95980736  0.02435963  0.50039548     0.07900
C688        C  0.01529961  0.96114994  0.51340776    -0.11200
C689        C  0.02703497  0.95581084  0.53029733    -0.10500
C690        C  0.02994043  0.97846758  0.54267204    -0.01400
C691        C  0.02151102  0.00671491  0.53768508    -0.11600
C692        C  0.00980810  0.01208104  0.52076423    -0.10000
H693        H  0.01258553  0.94305242  0.50435529     0.07900
H694        H  0.03316400  0.93378778  0.53382500     0.11600
H695        H  0.02351682  0.02459061  0.54697157     0.11300
H696        H  0.00352840  0.03407711  0.51727819     0.07900
C697        C  0.15347423  0.03769554  0.62654801    -0.11200
C698        C  0.14352884  0.06613831  0.62969270     0.05900
C699        C  0.11433229  0.07294744  0.62588241    -0.10000
C700        C  0.09545633  0.05161862  0.61922037    -0.11600
C701        C  0.10561287  0.02329778  0.61592396    -0.01400
C702        C  0.13479770  0.01659127  0.61964924    -0.10500
C703        C  0.16390048  0.08838361  0.63680062     0.05900
H704        H  0.10605510  0.09465016  0.62825501     0.07800
H705        H  0.07304563  0.05735414  0.61642894     0.11300
H706        H  0.14320697  0.99494157  0.61726766     0.11600
H707        H  0.17591847  0.03188255  0.62914837     0.07900
C708        C  0.18306461  0.08112616  0.65071820    -0.11200
C709        C  0.20402878  0.10093786  0.65649884    -0.10500
C710        C  0.20651329  0.12844201  0.64841368    -0.01400
C711        C  0.18677197  0.13617136  0.63488182    -0.11600
C712        C  0.16552609  0.11636517  0.62919068    -0.10000
H713        H  0.18204632  0.05989550  0.65701391     0.07900
H714        H  0.21881104  0.09440218  0.66702270     0.11600
H715        H  0.18813378  0.15728173  0.62846090     0.11300
H716        H  0.15110191  0.12251087  0.61840092     0.07900
C717        C  0.96359520  0.56972143  0.13994565    -0.11200
C718        C  0.94333765  0.58316601  0.12843669     0.05900
C719        C  0.94837328  0.58181388  0.10991941    -0.10000
C720        C  0.97364808  0.56914423  0.10318164    -0.11600
C721        C  0.99420084  0.55667377  0.11469597    -0.01400
C722        C  0.98863989  0.55633046  0.13311129    -0.10500
C723        C  0.91755785  0.59932626  0.13549068     0.05900
H724        H  0.93288795  0.59073157  0.10050844     0.07800
H725        H  0.97719447  0.56923594  0.08888840     0.11300
H726        H  0.00421360  0.54680095  0.14225702     0.11600
H727        H  0.96073186  0.57037517  0.15427126     0.07900
C728        C  0.90376868  0.59105772  0.15154004    -0.11200
C729        C  0.87930087  0.60620879  0.15774689    -0.10500
C730        C  0.86788713  0.62961765  0.14791566    -0.01400
C731        C  0.88174821  0.63809901  0.13205954    -0.11600
C732        C  0.90641392  0.62343132  0.12605543    -0.10000
H733        H  0.91141408  0.57253775  0.15914421     0.07900
H734        H  0.86898849  0.59927125  0.17005384     0.11600
H735        H  0.87367286  0.65633862  0.12432742     0.11300
H736        H  0.91685485  0.63132153  0.11402917     0.07900
C737        C  0.78742084  0.71787727  0.24419122    -0.11200
C738        C  0.76006148  0.73075834  0.24719295     0.05900
C739        C  0.73906042  0.72961118  0.23356904    -0.10000
C740        C  0.74538645  0.71629935  0.21729814    -0.11600
C741        C  0.77278890  0.70370709  0.21428926    -0.01400
C742        C  0.79369128  0.70443955  0.22792728    -0.10500
C743        C  0.75328422  0.74506225  0.26449267     0.05900
H744        H  0.71761052  0.73879363  0.23551782     0.07800
H745        H  0.72886122  0.71610180  0.20699137     0.11300
H746        H  0.81508966  0.69515474  0.22589629     0.11600
H747        H  0.80424817  0.71867956  0.25428873     0.07900
C748        C  0.76359458  0.73323228  0.28062646    -0.11200
C749        C  0.75639381  0.74604276  0.29691925    -0.10500
C750        C  0.73854509  0.77082791  0.29748008    -0.01400
C751        C  0.72854389  0.78296695  0.28140440    -0.11600
C752        C  0.73595890  0.77031079  0.26507964    -0.10000
H753        H  0.77661197  0.71361625  0.28071888     0.07900
H754        H  0.76426306  0.73610390  0.30913404     0.11600
H755        H  0.71487195  0.80214430  0.28145566     0.11300
H756        H  0.72810352  0.78034333  0.25289738     0.07900
C757        C  0.45271724  0.42385293  0.13962082    -0.11200
C758        C  0.43599565  0.40522453  0.12887639     0.05900
C759        C  0.44605336  0.39848251  0.11168824    -0.10000
C760        C  0.47247542  0.40951028  0.10550758    -0.11600
C761        C  0.48947929  0.42767632  0.11631450    -0.01400
C762        C  0.47919736  0.43512349  0.13334840    -0.10500
C763        C  0.40891762  0.39142535  0.13566413     0.05900
H764        H  0.43390672  0.38386609  0.10319410     0.07800
H765        H  0.47983606  0.40336909  0.09231265     0.11300
H766        H  0.49188506  0.44912795  0.14193274     0.11600
H767        H  0.44537498  0.42953664  0.15288971     0.07900
C768        C  0.40807836  0.37870473  0.15274819    -0.11200
C769        C  0.38388026  0.36240654  0.15820709    -0.10500
C770        C  0.36012072  0.35855836  0.14667642    -0.01400
C771        C  0.36042248  0.37237707  0.12993157    -0.11600
C772        C  0.38452785  0.38866610  0.12449831    -0.10000
H773        H  0.42665265  0.38024769  0.16156788     0.07900
H774        H  0.38421056  0.35196364  0.17117694     0.11600
H775        H  0.34228277  0.37001999  0.12083390     0.11300
H776        H  0.38438973  0.39858441  0.11136326     0.07900
C777        C  0.67355105  0.53962938  0.11493167    -0.11200
C778        C  0.66398293  0.56271623  0.12559958     0.05900
C779        C  0.63419144  0.56510060  0.12963004    -0.10000
C780        C  0.61448733  0.54395966  0.12362315    -0.11600
C781        C  0.62432355  0.52039127  0.11332194    -0.01400
C782        C  0.65394514  0.51882200  0.10878501    -0.10500
C783        C  0.68557442  0.58318763  0.13309702     0.05900
H784        H  0.62637013  0.58275574  0.13788378     0.07800
H785        H  0.59175188  0.54576157  0.12725958     0.11300
H786        H  0.66216469  0.50107309  0.10076479     0.11600
H787        H  0.69635284  0.53753968  0.11150533     0.07900
C788        C  0.70981185  0.57228806  0.14236285    -0.11200
C789        C  0.73098453  0.59112665  0.14898804    -0.10500
C790        C  0.72858488  0.62126345  0.14626570    -0.01400
C791        C  0.70430001  0.63224748  0.13701993    -0.11600
C792        C  0.68280269  0.61335144  0.13061928    -0.10000
H793        H  0.71232268  0.54910300  0.14448785     0.07900
H794        H  0.74947942  0.58204302  0.15602531     0.11600
H795        H  0.70196826  0.65539887  0.13471972     0.11300
H796        H  0.66437672  0.62218297  0.12339919     0.07900
C797        C  0.13271067  0.40437118  0.88215873    -0.11200
C798        C  0.10939120  0.40884970  0.87034123     0.05900
C799        C  0.11130998  0.39772724  0.85295651    -0.10000
C800        C  0.13549793  0.38121868  0.84778357    -0.11600
C801        C  0.15813927  0.37558315  0.85990819    -0.01400
C802        C  0.15680857  0.38785074  0.87701352    -0.10500
C803        C  0.08194588  0.42211059  0.87682417     0.05900
H804        H  0.09348016  0.40058009  0.84367620     0.07800
H805        H  0.13592171  0.37186458  0.83455158     0.11300
H806        H  0.17404035  0.38400989  0.88658572     0.11600
H807        H  0.13184777  0.41292735  0.89559429     0.07900
C808        C  0.06971947  0.41206619  0.89285500    -0.11200
C809        C  0.04298975  0.42265069  0.89872411    -0.10500
C810        C  0.02793330  0.44382196  0.88883212    -0.01400
C811        C  0.04033628  0.45450281  0.87296438    -0.11600
C812        C  0.06706454  0.44348221  0.86689630    -0.10000
H813        H  0.08048886  0.39532828  0.90063180     0.07900
H814        H  0.03398824  0.41405628  0.91101713     0.11600
H815        H  0.02909667  0.47081515  0.86509280     0.11300
H816        H  0.07609485  0.45155689  0.85447897     0.07900
C817        C  0.26369307  0.26503314  0.77297071    -0.11200
C818        C  0.23950358  0.25431448  0.76357593     0.05900
C819        C  0.21150638  0.25901848  0.77061787    -0.10000
C820        C  0.20788372  0.27344654  0.78688502    -0.11600
C821        C  0.23218395  0.28334755  0.79646586    -0.01400
C822        C  0.26007240  0.27933705  0.78923222    -0.10500
C823        C  0.24368586  0.23856000  0.74644926     0.05900
H824        H  0.19242214  0.25093269  0.76376277     0.07800
H825        H  0.18613414  0.27617790  0.79218790     0.11300
H826        H  0.27918536  0.28693449  0.79627175     0.11600
H827        H  0.28548433  0.26241770  0.76772345     0.07900
C828        C  0.22495066  0.24349837  0.73192468    -0.11200
C829        C  0.23032568  0.23040486  0.71542359    -0.10500
C830        C  0.25448454  0.21203473  0.71310127    -0.01400
C831        C  0.27254583  0.20616247  0.72777839    -0.11600
C832        C  0.26718792  0.21924977  0.74426952    -0.10000
H833        H  0.20674711  0.25832794  0.73311328     0.07900
H834        H  0.21597137  0.23526338  0.70434577     0.11600
H835        H  0.29117961  0.19191623  0.72642293     0.11300
H836        H  0.28166070  0.21446650  0.75530015     0.07900
C837        C  0.56374308  0.56711481  0.87064123    -0.11200
C838        C  0.57427482  0.59349958  0.87752953     0.05900
C839        C  0.55747892  0.60848393  0.89015577    -0.10000
C840        C  0.53141303  0.59689903  0.89638892    -0.11600
C841        C  0.52134114  0.57002148  0.89014319    -0.01400
C842        C  0.53745254  0.55536467  0.87697563    -0.10500
C843        C  0.60304236  0.60544877  0.87232672     0.05900
H844        H  0.56469942  0.62918812  0.89537752     0.07800
H845        H  0.51933466  0.60888931  0.90635813     0.11300
H846        H  0.53002988  0.53466982  0.87185356     0.11600
H847        H  0.57625667  0.55520501  0.86083986     0.07900
C848        C  0.62145679  0.61663878  0.88557401    -0.11200
C849        C  0.64684001  0.63141596  0.88098516    -0.10500
C850        C  0.65450429  0.63530038  0.86302419    -0.01400
C851        C  0.63708306  0.62266573  0.84972625    -0.11600
C852        C  0.61150596  0.60776275  0.85435360    -0.10000
H853        H  0.61577393  0.61461997  0.89955014     0.07900
H854        H  0.65996860  0.64066811  0.89152509     0.11600
H855        H  0.64257709  0.62533411  0.83576244     0.11300
H856        H  0.59769144  0.59930593  0.84389343     0.07900
C857        C  0.51637691  0.48422646  0.97912711    -0.11200
C858        C  0.50691256  0.49733636  0.99505017     0.05900
C859        C  0.48431804  0.51801361  0.99409948    -0.10000
C860        C  0.47168450  0.52549834  0.97772944    -0.11600
C861        C  0.48116544  0.51236511  0.96188528    -0.01400
C862        C  0.50362390  0.49163802  0.96275620    -0.10500
C863        C  0.52046934  0.48962812  0.01256329     0.05900
H864        H  0.47602831  0.52822027  0.00607032     0.07800
H865        H  0.45443978  0.54153244  0.97748397     0.11300
H866        H  0.51152649  0.48126871  0.95073023     0.11600
H867        H  0.53396555  0.46858265  0.97924786     0.07900
C868        C  0.52967776  0.46100437  0.01631412    -0.11200
C869        C  0.54166130  0.45383968  0.03295857    -0.10500
C870        C  0.54448711  0.47509045  0.04625657    -0.01400
C871        C  0.53559927  0.50366032  0.04249382    -0.11600
C872        C  0.52394104  0.51089417  0.02584393    -0.10000
H873        H  0.52699573  0.44391965  0.00654269     0.07900
H874        H  0.54806920  0.43156743  0.03556622     0.11600
H875        H  0.53758701  0.52051801  0.05248459     0.11300
H876        H  0.51775172  0.53324464  0.02337921     0.07900
C877        C  0.32287446  0.40845631  0.85924109    -0.11200
C878        C  0.33409506  0.40525399  0.87654380     0.05900
C879        C  0.32484867  0.38180879  0.88715927    -0.10000
C880        C  0.30432114  0.36207913  0.88067127    -0.11600
C881        C  0.29232619  0.36581194  0.86358053    -0.01400
C882        C  0.30202368  0.38899577  0.85284779    -0.10500
C883        C  0.35491234  0.42674374  0.88363389     0.05900
H884        H  0.33343728  0.37887483  0.90049845     0.07800
H885        H  0.29721461  0.34441836  0.88921662     0.11300
H886        H  0.29309461  0.39240319  0.83963470     0.11600
H887        H  0.32966219  0.42648618  0.85087785     0.07900
C888        C  0.38034927  0.43353061  0.87413452    -0.11200
C889        C  0.39971874  0.45436362  0.88063809    -0.10500
C890        C  0.39372753  0.46905792  0.89661805    -0.01400
C891        C  0.36832556  0.46210756  0.90617339    -0.11600
C892        C  0.34915422  0.44099529  0.89977849    -0.10000
H893        H  0.38521330  0.42265382  0.86169190     0.07900
H894        H  0.41911509  0.45934072  0.87300268     0.11600
H895        H  0.36311475  0.47321571  0.91848307     0.11300
H896        H  0.32950424  0.43620473  0.90722979     0.07900
C897        C  0.64688379  0.86054805  0.90413168    -0.11200
C898        C  0.65192709  0.85303505  0.88624567     0.05900
C899        C  0.64349401  0.87253402  0.87272121    -0.10000
C900        C  0.62884898  0.89819932  0.87689974    -0.11600
C901        C  0.62225891  0.90494082  0.89470025    -0.01400
C902        C  0.63205158  0.88627535  0.90832914    -0.10500
C903        C  0.66387439  0.82413807  0.88143560     0.05900
H904        H  0.64759876  0.86753495  0.85884021     0.07800
H905        H  0.62177469  0.91227751  0.86611046     0.11300
H906        H  0.62731257  0.89101638  0.92216057     0.11600
H907        H  0.65314670  0.84587091  0.91480571     0.07900
C908        C  0.68828763  0.81235175  0.89018186    -0.11200
C909        C  0.69986169  0.78552781  0.88479605    -0.10500
C910        C  0.68688431  0.76998983  0.87079622    -0.01400
C911        C  0.66188473  0.78135202  0.86257634    -0.11600
C912        C  0.65061410  0.80812962  0.86777221    -0.10000
H913        H  0.69880629  0.82421383  0.90081681     0.07900
H914        H  0.71904209  0.77707799  0.89144306     0.11600
H915        H  0.65128721  0.76978304  0.85183895     0.11300
H916        H  0.63138908  0.81636803  0.86106869     0.07900
C917        C  0.84129030  0.32112395  0.85964249    -0.11200
C918        C  0.84555044  0.32481939  0.87807427     0.05900
C919        C  0.83498507  0.30338768  0.88984860    -0.10000
C920        C  0.82178104  0.27812810  0.88321616    -0.11600
C921        C  0.81916536  0.27385480  0.86472558    -0.01400
C922        C  0.82846198  0.29588036  0.85305318    -0.10500
C923        C  0.86263762  0.35011023  0.88457646     0.05900
H924        H  0.83805160  0.30555461  0.90410584     0.07800
H925        H  0.81489755  0.26137787  0.89248166     0.11300
H926        H  0.82645493  0.29328058  0.83874723     0.11600
H927        H  0.84850022  0.33753551  0.85024008     0.07900
C928        C  0.88736035  0.35901891  0.87499579    -0.11200
C929        C  0.90302774  0.38343768  0.88013765    -0.10500
C930        C  0.89474937  0.39946735  0.89518594    -0.01400
C931        C  0.87059562  0.39025428  0.90524071    -0.11600
C932        C  0.85458635  0.36571212  0.89995197    -0.10000
H933        H  0.89470499  0.34702141  0.86343091     0.07900
H934        H  0.92184978  0.38965855  0.87232628     0.11600
H935        H  0.86389575  0.40220533  0.91698322     0.11300
H936        H  0.83566387  0.35932689  0.90760912     0.07900
C937        C  0.69744429  0.09785624  0.85665552    -0.11200
C938        C  0.68207457  0.10412813  0.87239563     0.05900
C939        C  0.68964383  0.12900888  0.88216506    -0.10000
C940        C  0.71205360  0.14732711  0.87625778    -0.11600
C941        C  0.72770079  0.14081881  0.86065701    -0.01400
C942        C  0.72017015  0.11588647  0.85091465    -0.10500
C943        C  0.65888933  0.08415349  0.87881218     0.05900
H944        H  0.67810015  0.13434324  0.89431982     0.07800
H945        H  0.71743207  0.16635934  0.88404354     0.11300
H946        H  0.73186595  0.11030858  0.83885695     0.11600
H947        H  0.69226055  0.07862450  0.84899411     0.07900
C948        C  0.63729154  0.07413114  0.86708376    -0.11200
C949        C  0.61687577  0.05343798  0.87272484    -0.10500
C950        C  0.61795845  0.04203477  0.89012413    -0.01400
C951        C  0.63899808  0.05272171  0.90201984    -0.11600
C952        C  0.65911512  0.07375405  0.89646020    -0.10000
H953        H  0.63647995  0.08204807  0.85346825     0.07900
H954        H  0.60085555  0.04566432  0.86329777     0.11600
H955        H  0.64027394  0.04439376  0.91553183     0.11300
H956        H  0.67558293  0.08105797  0.90574835     0.07900
C957        C  0.12578892  0.35661226  0.37477116    -0.11200
C958        C  0.13985332  0.33817912  0.38705636     0.05900
C959        C  0.13953499  0.34571633  0.40523343    -0.10000
C960        C  0.12438217  0.37045983  0.41101798    -0.11600
C961        C  0.10937166  0.38808806  0.39872410    -0.01400
C962        C  0.11065721  0.38113747  0.38053146    -0.10500
C963        C  0.15320940  0.31049722  0.38083063     0.05900
H964        H  0.15003412  0.33192569  0.41504109     0.07800
H965        H  0.12376709  0.37536508  0.42513776     0.11300
H966        H  0.09949904  0.39440879  0.37071736     0.11600
H967        H  0.12617078  0.35188363  0.36062696     0.07900
C968        C  0.13923906  0.29427063  0.36750800    -0.11200
C969        C  0.15153502  0.26867342  0.36111050    -0.10500
C970        C  0.17809410  0.25838617  0.36789147    -0.01400
C971        C  0.19198900  0.27412665  0.38147011    -0.11600
C972        C  0.17960640  0.29998391  0.38791444    -0.10000
H973        H  0.11855475  0.30123708  0.36207073     0.07900
H974        H  0.14014850  0.25693009  0.35073407     0.11600
H975        H  0.21246466  0.26662669  0.38694753     0.11300
H976        H  0.19095030  0.31202998  0.39816949     0.07900
C977        C  0.38098854  0.84075683  0.37482415    -0.11200
C978        C  0.35651288  0.83060781  0.38430170     0.05900
C979        C  0.34756633  0.84606750  0.39956414    -0.10000
C980        C  0.36263447  0.87096543  0.40507779    -0.11600
C981        C  0.38659157  0.88120811  0.39527371    -0.01400
C982        C  0.39558520  0.86586644  0.38011828    -0.10500
C983        C  0.34082065  0.80392863  0.37824584     0.05900
H984        H  0.32867793  0.83926425  0.40712191     0.07800
H985        H  0.35525450  0.88248382  0.41682849     0.11300
H986        H  0.41425364  0.87305866  0.37245579     0.11600
H987        H  0.38928278  0.82911018  0.36337756     0.07900
C988        C  0.33987065  0.79677192  0.36000071    -0.11200
C989        C  0.32727434  0.77078847  0.35432621    -0.10500
C990        C  0.31453790  0.75160954  0.36664943    -0.01400
C991        C  0.31419859  0.75911702  0.38477091    -0.11600
C992        C  0.32745083  0.78486936  0.39054291    -0.10000
H993        H  0.34891822  0.81120555  0.34999803     0.07900
H994        H  0.32738084  0.76574393  0.34021722     0.11600
H995        H  0.30448386  0.74465649  0.39452783     0.11300
H996        H  0.32791965  0.78932383  0.40470410     0.07900
C997        C  0.17495332  0.58713049  0.36333749    -0.11200
C998        C  0.16250764  0.59321675  0.38003692     0.05900
C999        C  0.17271269  0.61725314  0.38971266    -0.10000
C1000       C  0.19502205  0.63478879  0.38281265    -0.11600
C1001       C  0.20787512  0.62825701  0.36628313    -0.01400
C1002       C  0.19753589  0.60431964  0.35659713    -0.10500
C1003       C  0.14010593  0.57342751  0.38757834     0.05900
H1004       H  0.16348019  0.62238836  0.40261479     0.07800
H1005       H  0.20270957  0.65302071  0.39060059     0.11300
H1006       H  0.20710291  0.59871398  0.34386081     0.11600
H1007       H  0.16778905  0.56848813  0.35572034     0.07900
C1008       C  0.11697870  0.56363856  0.37692287    -0.11200
C1009       C  0.09809640  0.54203299  0.38317574    -0.10500
C1010       C  0.10226293  0.52948376  0.40009382    -0.01400
C1011       C  0.12446253  0.54029071  0.41110891    -0.11600
C1012       C  0.14309343  0.56222705  0.40494958    -0.10000
H1013       H  0.11400923  0.57218248  0.36356628     0.07900
H1014       H  0.08103468  0.53423770  0.37444873     0.11600
H1015       H  0.12799338  0.53114551  0.42426600     0.11300
H1016       H  0.16078548  0.56935519  0.41342221     0.07900
C1017       C  0.14808538  0.64298391  0.10174801    -0.11200
C1018       C  0.15122424  0.64865699  0.12006295     0.05900
C1019       C  0.14096093  0.62811274  0.13246413    -0.10000
C1020       C  0.12680493  0.60301381  0.12676291    -0.11600
C1021       C  0.12242528  0.59790743  0.10851348    -0.01400
C1022       C  0.13367826  0.61781745  0.09601041    -0.10500
C1023       C  0.16380234  0.67641590  0.12646842     0.05900
H1024       H  0.14357247  0.63167710  0.14665038     0.07800
H1025       H  0.11865157  0.58792579  0.13670296     0.11300
H1026       H  0.13072312  0.61429634  0.08185361     0.11600
H1027       H  0.15579941  0.65849218  0.09192425     0.07900
C1028       C  0.18976258  0.68763629  0.11927285    -0.11200
C1029       C  0.20191414  0.71326088  0.12609772    -0.10500
C1030       C  0.18820664  0.72804426  0.14015956    -0.01400
C1031       C  0.16194328  0.71710482  0.14702954    -0.11600
C1032       C  0.14988386  0.69163571  0.14025744    -0.10000
H1033       H  0.20094002  0.67625389  0.10866306     0.07900
H1034       H  0.22214863  0.72131188  0.12053907     0.11600
H1035       H  0.15067924  0.72821793  0.15771674     0.11300
H1036       H  0.12956768  0.68379276  0.14582179     0.07900
C1037       C  0.26450951  0.73999092  0.23288152    -0.11200
C1038       C  0.24366509  0.74402362  0.24642226     0.05900
C1039       C  0.21946997  0.76187804  0.24287390    -0.10000
C1040       C  0.21619193  0.77537065  0.22624685    -0.11600
C1041       C  0.23697601  0.77126231  0.21274139    -0.01400
C1042       C  0.26116328  0.75343079  0.21621132    -0.10500
C1043       C  0.24736110  0.73008888  0.26425926     0.05900
H1044       H  0.20278189  0.76511263  0.25289307     0.07800
H1045       H  0.19714286  0.78869354  0.22387941     0.11300
H1046       H  0.27747989  0.74978968  0.20600932     0.11600
H1047       H  0.28359406  0.72672863  0.23523835     0.07900
C1048       C  0.25846200  0.70166131  0.26587208    -0.11200
C1049       C  0.26297505  0.68910570  0.28269988    -0.10500
C1050       C  0.25632245  0.70464850  0.29826734    -0.01400
C1051       C  0.24462832  0.73277317  0.29667837    -0.11600
C1052       C  0.24026633  0.74537920  0.27988563    -0.10000
H1053       H  0.26371266  0.68910106  0.25410152     0.07900
H1054       H  0.27197337  0.66738462  0.28353703     0.11600
H1055       H  0.23955817  0.74539658  0.30845987     0.11300
H1056       H  0.23206965  0.76741965  0.27916336     0.07900
C1057       C  0.32134396  0.17569173  0.12808441    -0.11200
C1058       C  0.35115740  0.17440714  0.12394813     0.05900
C1059       C  0.36837151  0.19931570  0.12630733    -0.10000
C1060       C  0.35620201  0.22481328  0.13309889    -0.11600
C1061       C  0.32644220  0.22613907  0.13726047    -0.01400
C1062       C  0.30898891  0.20150327  0.13448700    -0.10500
C1063       C  0.36474097  0.14704640  0.11770996     0.05900
H1064       H  0.39143103  0.19879668  0.12333416     0.07800
H1065       H  0.37008243  0.24356602  0.13508392     0.11300
H1066       H  0.28601005  0.20201343  0.13767781     0.11600
H1067       H  0.30764827  0.15674954  0.12631303     0.07900
C1068       C  0.36088839  0.12099287  0.12729195    -0.11200
C1069       C  0.37592284  0.09579180  0.12230189    -0.10500
C1070       C  0.39451485  0.09612045  0.10741585    -0.01400
C1071       C  0.39755874  0.12191456  0.09750326    -0.11600
C1072       C  0.38304790  0.14720866  0.10270651    -0.10000
H1073       H  0.34703674  0.12041928  0.13898254     0.07900
H1074       H  0.37317051  0.07611726  0.13012989     0.11600
H1075       H  0.41181486  0.12274342  0.08600402     0.11300
H1076       H  0.38627006  0.16701763  0.09508027     0.07900
C1077       C  0.51250811  0.96167424  0.98325403    -0.11200
C1078       C  0.50313852  0.98919584  0.98903102     0.05900
C1079       C  0.50711177  0.01328885  0.97767946    -0.10000
C1080       C  0.52045285  0.00997334  0.96102410    -0.11600
C1081       C  0.53001654  0.98249191  0.95533394    -0.01400
C1082       C  0.52579920  0.95835208  0.96658063    -0.10500
C1083       C  0.49052473  0.99301978  0.00714862     0.05900
H1084       H  0.50047458  0.03481312  0.98185070     0.07800
H1085       H  0.52339308  0.02897985  0.95261616     0.11300
H1086       H  0.53269529  0.93687925  0.96246811     0.11600
H1087       H  0.50947575  0.94266626  0.99164280     0.07900
C1088       C  0.46629330  0.01116049  0.00992567    -0.11200
C1089       C  0.45569521  0.01604218  0.02718592    -0.10500
C1090       C  0.46924954  0.00303204  0.04201651    -0.01400
C1091       C  0.49303492  0.98441099  0.03919564    -0.11600
C1092       C  0.50349654  0.97938789  0.02195941    -0.10000
H1093       H  0.45565060  0.02171365  0.99873911     0.07900
H1094       H  0.43727499  0.03043255  0.02895584     0.11600
H1095       H  0.50395963  0.97412854  0.05036942     0.11300
H1096       H  0.52235501  0.96555492  0.02027135     0.07900
C1097       C  0.38307744  0.91365203  0.12874493    -0.11200
C1098       C  0.35324318  0.91508916  0.12476527     0.05900
C1099       C  0.34311969  0.93685163  0.11314577    -0.10000
C1100       C  0.36231954  0.95722724  0.10591726    -0.11600
C1101       C  0.39199024  0.95653220  0.11036293    -0.01400
C1102       C  0.40230502  0.93440416  0.12171407    -0.10500
C1103       C  0.33227367  0.89471744  0.13307252     0.05900
H1104       H  0.32024769  0.93818143  0.10976516     0.07800
H1105       H  0.35375857  0.97403546  0.09720473     0.11300
H1106       H  0.42508689  0.93340983  0.12534248     0.11600
H1107       H  0.39130708  0.89704078  0.13771380     0.07900
C1108       C  0.33606490  0.86448489  0.13178892    -0.11200
C1109       C  0.31476257  0.84550500  0.13845608    -0.10500
C1110       C  0.28971129  0.85651124  0.14683781    -0.01400
C1111       C  0.28659038  0.88673641  0.14870572    -0.11600
C1112       C  0.30752424  0.90563870  0.14175190    -0.10000
H1113       H  0.35498664  0.85563175  0.12511205     0.07900
H1114       H  0.31769514  0.82228093  0.13688366     0.11600
H1115       H  0.26750102  0.89582383  0.15507674     0.11300
H1116       H  0.30428821  0.92888925  0.14301487     0.07900
C1117       C  0.62522915  0.12647131  0.63567676    -0.11200
C1118       C  0.63201545  0.14881401  0.62351673     0.05900
C1119       C  0.62509502  0.14501772  0.60541010    -0.10000
C1120       C  0.61091406  0.11977360  0.59968203    -0.11600
C1121       C  0.60344821  0.09781972  0.61194180    -0.01400
C1122       C  0.61110270  0.10126227  0.62995500    -0.10500
C1123       C  0.64504088  0.17647266  0.62985822     0.05900
H1124       H  0.62980909  0.16198235  0.59577298     0.07800
H1125       H  0.60515160  0.11775338  0.58573655     0.11300
H1126       H  0.60574140  0.08464380  0.63970047     0.11600
H1127       H  0.63065437  0.12861744  0.64967537     0.07900
C1128       C  0.63436733  0.18978311  0.64538305    -0.11200
C1129       C  0.64603655  0.21607582  0.65127754    -0.10500
C1130       C  0.66873486  0.22963048  0.64183296    -0.01400
C1131       C  0.67949279  0.21639149  0.62631413    -0.11600
C1132       C  0.66769795  0.19007652  0.62035512    -0.10000
H1133       H  0.61662502  0.18007336  0.65282510     0.07900
H1134       H  0.63719781  0.22584560  0.66324752     0.11600
H1135       H  0.69700194  0.22635967  0.61879951     0.11300
H1136       H  0.67646400  0.18020657  0.60840342     0.07900
C1137       C  0.73186337  0.28150886  0.74187886    -0.11200
C1138       C  0.75055738  0.25729249  0.74276336     0.05900
C1139       C  0.76079396  0.24505775  0.72680031    -0.10000
C1140       C  0.75198208  0.25635750  0.71033987    -0.11600
C1141       C  0.73270115  0.28005011  0.70949332    -0.01400
C1142       C  0.72295559  0.29273180  0.72540581    -0.10500
C1143       C  0.75863355  0.24435219  0.76025702     0.05900
H1144       H  0.77495601  0.22624404  0.72702436     0.07800
H1145       H  0.75977746  0.24610251  0.69824865     0.11300
H1146       H  0.70824971  0.31111847  0.72511944     0.11600
H1147       H  0.72402945  0.29175411  0.75395759     0.07900
C1148       C  0.78706715  0.23425567  0.76347430    -0.11200
C1149       C  0.79452221  0.22232970  0.78005866    -0.10500
C1150       C  0.77369394  0.22034544  0.79373257    -0.01400
C1151       C  0.74521485  0.23001861  0.79043624    -0.11600
C1152       C  0.73774548  0.24183056  0.77387985    -0.10000
H1153       H  0.80371039  0.23610875  0.75328425     0.07900
H1154       H  0.81668110  0.21517735  0.78229162     0.11600
H1155       H  0.72868308  0.22863221  0.80072324     0.11300
H1156       H  0.71553358  0.24884140  0.77170641     0.07900
C1157       C  0.84889027  0.63193380  0.62982954    -0.11200
C1158       C  0.85128965  0.65678115  0.61899103     0.05900
C1159       C  0.86724782  0.65522576  0.60304379    -0.10000
C1160       C  0.88090931  0.62927499  0.59812491    -0.11600
C1161       C  0.87933447  0.60471585  0.60929272    -0.01400
C1162       C  0.86299497  0.60618539  0.62509351    -0.10500
C1163       C  0.83813495  0.68451310  0.62477238     0.05900
H1164       H  0.86925671  0.67415083  0.59446915     0.07800
H1165       H  0.89346089  0.62868725  0.58590122     0.11300
H1166       H  0.86144852  0.58752179  0.63391642     0.11600
H1167       H  0.83685481  0.63273986  0.64224337     0.07900
C1168       C  0.80886694  0.68560642  0.63011725    -0.11200
C1169       C  0.79687682  0.71151998  0.63648456    -0.10500
C1170       C  0.81416476  0.73656674  0.63795170    -0.01400
C1171       C  0.84338053  0.73551442  0.63247105    -0.11600
C1172       C  0.85519787  0.70976786  0.62576746    -0.10000
H1173       H  0.79533868  0.66634307  0.62942321     0.07900
H1174       H  0.77434714  0.71176955  0.64071163     0.11600
H1175       H  0.85715014  0.75456398  0.63349193     0.11300
H1176       H  0.87788453  0.70931327  0.62186165     0.07900
C1177       C  0.95479026  0.50659838  0.51619657    -0.11200
C1178       C  0.97983037  0.48899248  0.51498247     0.05900
C1179       C  0.99225525  0.47822557  0.53083403    -0.10000
C1180       C  0.98057555  0.48558733  0.54742411    -0.11600
C1181       C  0.95635288  0.50408410  0.54861166    -0.01400
C1182       C  0.94331142  0.51424494  0.53283877    -0.10500
C1183       C  0.99393091  0.48319738  0.49741686     0.05900
H1184       H  0.01171677  0.46498554  0.53051171     0.07800
H1185       H  0.99110960  0.47748307  0.55937683     0.11300
H1186       H  0.92444439  0.52834271  0.53337070     0.11600
H1187       H  0.94419789  0.51475834  0.50428187     0.07900
C1188       C  0.00820130  0.45663770  0.49407277    -0.11200
C1189       C  0.02252704  0.45191011  0.47785199    -0.10500
C1190       C  0.02257886  0.47347860  0.46453516    -0.01400
C1191       C  0.00831385  0.49991610  0.46779593    -0.11600
C1192       C  0.99428862  0.50478319  0.48405356    -0.10000
H1193       H  0.00806140  0.43932438  0.50391186     0.07900
H1194       H  0.03306965  0.43117689  0.47559830     0.11600
H1195       H  0.00801818  0.51693358  0.45775301     0.11300
H1196       H  0.98416716  0.52572245  0.48623753     0.07900
C1197       C  0.81512520  0.37154977  0.63026829    -0.11200
C1198       C  0.81060142  0.40171402  0.63156718     0.05900
C1199       C  0.78439967  0.41191934  0.63891991    -0.10000
C1200       C  0.76318893  0.39245556  0.64488714    -0.11600
C1201       C  0.76749685  0.36233041  0.64339607    -0.01400
C1202       C  0.79359336  0.35199861  0.63597596    -0.10500
C1203       C  0.83265300  0.42277387  0.62499036     0.05900
H1204       H  0.78043439  0.43504572  0.64019498     0.07800
H1205       H  0.74322841  0.40101437  0.65050730     0.11300
H1206       H  0.79741234  0.32885237  0.63471255     0.11600
H1207       H  0.83505507  0.36315702  0.62453944     0.07900
C1208       C  0.86217917  0.42020119  0.62970727    -0.11200
C1209       C  0.88237493  0.44136005  0.62423521    -0.10500
C1210       C  0.87337607  0.46515647  0.61375215    -0.01400
C1211       C  0.84399970  0.46719178  0.60872382    -0.11600
C1212       C  0.82388766  0.44635483  0.61432995    -0.10000
H1213       H  0.86944769  0.40226569  0.63799924     0.07900
H1214       H  0.90489457  0.43923891  0.62828556     0.11600
H1215       H  0.83639121  0.48521227  0.60062427     0.11300
H1216       H  0.80135944  0.44869230  0.61033557     0.07900
C1217       C  0.60067512  0.37633999  0.62207197    -0.11200
C1218       C  0.58128410  0.38776682  0.63472691     0.05900
C1219       C  0.58762445  0.38454953  0.65295992    -0.10000
C1220       C  0.61239272  0.36921914  0.65842617    -0.11600
C1221       C  0.63123419  0.35702319  0.64573253    -0.01400
C1222       C  0.62540411  0.36115082  0.62751754    -0.10500
C1223       C  0.55374973  0.40144318  0.62882527     0.05900
H1224       H  0.57291436  0.39300657  0.66297325     0.07800
H1225       H  0.61649576  0.36643109  0.67254905     0.11300
H1226       H  0.63971087  0.35219381  0.61743773     0.11600
H1227       H  0.59651740  0.37890121  0.60792951     0.07900
C1228       C  0.54357793  0.42731052  0.63659269    -0.11200
C1229       C  0.51740649  0.43983857  0.63084796    -0.10500
C1230       C  0.50093617  0.42645710  0.61741359    -0.01400
C1231       C  0.51106536  0.40053406  0.60978308    -0.11600
C1232       C  0.53720253  0.38820820  0.61538956    -0.10000
H1233       H  0.55603548  0.43797969  0.64693190     0.07900
H1234       H  0.51001794  0.45985406  0.63692601     0.11600
H1235       H  0.49879637  0.38974795  0.59940630     0.11300
H1236       H  0.54428721  0.36803158  0.60937696     0.07900
C1237       C  0.35076860  0.36184049  0.63666549    -0.11200
C1238       C  0.34082248  0.34157148  0.62410029     0.05900
C1239       C  0.34427224  0.34780224  0.60584064    -0.10000
C1240       C  0.35872399  0.37315687  0.60031979    -0.11600
C1241       C  0.36977442  0.39273297  0.61297398    -0.01400
C1242       C  0.36505885  0.38711087  0.63117378    -0.10500
C1243       C  0.32873124  0.31329335  0.63022930     0.05900
H1244       H  0.33690289  0.33249592  0.59587988     0.07800
H1245       H  0.36207136  0.37697036  0.58619891     0.11300
H1246       H  0.37313294  0.40188523  0.64123491     0.11600
H1247       H  0.34796884  0.35783746  0.65081757     0.07900
C1248       C  0.34282538  0.29784260  0.64392480    -0.11200
C1249       C  0.33172117  0.27142616  0.65008412    -0.10500
C1250       C  0.30617001  0.25977823  0.64275225    -0.01400
C1251       C  0.29213086  0.27497455  0.62889773    -0.11600
C1252       C  0.30340524  0.30148231  0.62262684    -0.10000
H1253       H  0.36267462  0.30612396  0.64980532     0.07900
H1254       H  0.34317732  0.26012858  0.66067576     0.11600
H1255       H  0.27243873  0.26643106  0.62297434     0.11300
H1256       H  0.29210097  0.31298525  0.61206181     0.07900
C1257       C  0.09704044  0.83980112  0.62686642    -0.11200
C1258       C  0.12562926  0.83412224  0.62119175     0.05900
C1259       C  0.13822591  0.85238013  0.60820098    -0.10000
C1260       C  0.12297053  0.87660613  0.60168239    -0.11600
C1261       C  0.09498245  0.88297441  0.60812508    -0.01400
C1262       C  0.08194414  0.86399248  0.62045910    -0.10500
C1263       C  0.14226933  0.80972426  0.62932366     0.05900
H1264       H  0.16021978  0.84853413  0.60357593     0.07800
H1265       H  0.13345601  0.89093599  0.59213453     0.11300
H1266       H  0.06019514  0.86815246  0.62542210     0.11600
H1267       H  0.08644894  0.82569440  0.63648963     0.07900
C1268       C  0.14030871  0.80434381  0.64776950    -0.11200
C1269       C  0.15429590  0.78038409  0.65542547    -0.10500
C1270       C  0.17080854  0.76141517  0.64484836    -0.01400
C1271       C  0.17381387  0.76736744  0.62653931    -0.11600
C1272       C  0.15959124  0.79127210  0.61882639    -0.10000
H1273       H  0.12769341  0.81857124  0.65628478     0.07900
H1274       H  0.15189270  0.77647456  0.66961371     0.11600
H1275       H  0.18634742  0.75299076  0.61809069     0.11300
H1276       H  0.16141733  0.79480293  0.60457331     0.07900
C1277       C  0.10654930  0.60775970  0.62991495    -0.11200
C1278       C  0.08357177  0.60186470  0.64177458     0.05900
C1279       C  0.08657345  0.61000550  0.65975951    -0.10000
C1280       C  0.11141876  0.62507258  0.66548462    -0.11600
C1281       C  0.13364312  0.63215837  0.65332124    -0.01400
C1282       C  0.13119261  0.62277482  0.63559500    -0.10500
C1283       C  0.05604761  0.58901534  0.63492869     0.05900
H1284       H  0.06923154  0.60581644  0.66920795     0.07800
H1285       H  0.11282860  0.63194847  0.67925336     0.11300
H1286       H  0.14810598  0.62758878  0.62595640     0.11600
H1287       H  0.10525013  0.60117681  0.61608270     0.07900
C1288       C  0.04491153  0.59840768  0.61842619    -0.11200
C1289       C  0.01941758  0.58647369  0.61155435    -0.10500
C1290       C  0.00425689  0.56480936  0.62098015    -0.01400
C1291       C  0.01502052  0.55554794  0.63761357    -0.11600
C1292       C  0.04067628  0.56762399  0.64456406    -0.10000
H1293       H  0.05580128  0.61530269  0.61084316     0.07900
H1294       H  0.01157840  0.59426284  0.59877094     0.11600
H1295       H  0.00368087  0.53895277  0.64519299     0.11300
H1296       H  0.04874547  0.55990897  0.65730355     0.07900
C1297       C  0.30924843  0.62200271  0.62692747    -0.11200
C1298       C  0.31807459  0.59760773  0.63699233     0.05900
C1299       C  0.30481462  0.59266035  0.65365361    -0.10000
C1300       C  0.28278454  0.61104734  0.65985199    -0.11600
C1301       C  0.27355439  0.63498197  0.64962545    -0.01400
C1302       C  0.28726896  0.64051484  0.63319554    -0.10500
C1303       C  0.33960183  0.57633614  0.62977546     0.05900
H1304       H  0.31069724  0.57390881  0.66166457     0.07800
H1305       H  0.27263795  0.60624689  0.67257171     0.11300
H1306       H  0.28061477  0.65883643  0.62502519     0.11600
H1307       H  0.31920938  0.62668886  0.61414111     0.07900
C1308       C  0.33896839  0.56848276  0.61165683    -0.11200
C1309       C  0.35705665  0.54640781  0.60518836    -0.10500
C1310       C  0.37638777  0.53181089  0.61663014    -0.01400
C1311       C  0.37788876  0.54029559  0.63458575    -0.11600
C1312       C  0.35966097  0.56226878  0.64109775    -0.10000
H1313       H  0.32363296  0.57856250  0.60258556     0.07900
H1314       H  0.35551418  0.54037908  0.59127159     0.11600
H1315       H  0.39265182  0.52945582  0.64370576     0.11300
H1316       H  0.36106362  0.56803901  0.65505792     0.07900
C1317       C  0.89472590  0.35452678  0.38127296    -0.11200
C1318       C  0.90119101  0.38219725  0.37419006     0.05900
C1319       C  0.88334492  0.39334689  0.36049527    -0.10000
C1320       C  0.85949796  0.37732063  0.35427038    -0.11600
C1321       C  0.85281700  0.35014267  0.36183133    -0.01400
C1322       C  0.87064514  0.33893048  0.37535536    -0.10500
C1323       C  0.92642764  0.39896934  0.38126239     0.05900
H1324       H  0.88742989  0.41462609  0.35480947     0.07800
H1325       H  0.84593543  0.38642256  0.34382282     0.11300
H1326       H  0.86618929  0.31782746  0.38122299     0.11600
H1327       H  0.90842276  0.34463512  0.39135729     0.07900
C1328       C  0.93445546  0.39598106  0.39928329    -0.11200
C1329       C  0.95958574  0.40911949  0.40576012    -0.10500
C1330       C  0.97709700  0.42618596  0.39454092    -0.01400
C1331       C  0.96842283  0.43074345  0.37678798    -0.11600
C1332       C  0.94337802  0.41709933  0.37016213    -0.10000
H1333       H  0.92146195  0.38320291  0.40846015     0.07900
H1334       H  0.96549238  0.40561930  0.41959466     0.11600
H1335       H  0.98155186  0.44390706  0.36788659     0.11300
H1336       H  0.93798806  0.41990119  0.35620337     0.07900
C1337       C  0.85304161  0.11794414  0.37088756    -0.11200
C1338       C  0.84793452  0.14108204  0.38269169     0.05900
C1339       C  0.85835787  0.13884523  0.40028757    -0.10000
C1340       C  0.87461476  0.11457144  0.40568475    -0.11600
C1341       C  0.88073716  0.09212984  0.39358437    -0.01400
C1342       C  0.86932728  0.09381699  0.37625062    -0.10500
C1343       C  0.83374918  0.16822521  0.37620788     0.05900
H1344       H  0.85501720  0.15638787  0.40965580     0.07800
H1345       H  0.88317321  0.11380713  0.41913817     0.11300
H1346       H  0.87350024  0.07673097  0.36668045     0.11600
H1347       H  0.84483953  0.11871523  0.35734999     0.07900
C1348       C  0.84075765  0.17926446  0.35923452    -0.11200
C1349       C  0.82886639  0.20542372  0.35323963    -0.10500
C1350       C  0.80961880  0.22128173  0.36402867    -0.01400
C1351       C  0.80213423  0.21018989  0.38090474    -0.11600
C1352       C  0.81417000  0.18390266  0.38696941    -0.10000
H1353       H  0.85615725  0.16808860  0.35072757     0.07900
H1354       H  0.83513227  0.21346697  0.34017949     0.11600
H1355       H  0.78738451  0.22203682  0.38949596     0.11300
H1356       H  0.80818898  0.17584923  0.40006469     0.07900
C1357       C  0.61919125  0.63267162  0.37511183    -0.11200
C1358       C  0.64075343  0.64535489  0.38589586     0.05900
C1359       C  0.64660674  0.63263363  0.40265626    -0.10000
C1360       C  0.63124292  0.60792853  0.40840536    -0.11600
C1361       C  0.61000244  0.59527515  0.39743073    -0.01400
C1362       C  0.60426585  0.60785416  0.38072211    -0.10500
C1363       C  0.65648428  0.67191223  0.37958778     0.05900
H1364       H  0.66321061  0.64156351  0.41126703     0.07800
H1365       H  0.63606642  0.59864158  0.42137809     0.11300
H1366       H  0.58772263  0.59883794  0.37207901     0.11600
H1367       H  0.61334628  0.64220390  0.36238108     0.07900
C1368       C  0.66215572  0.67598011  0.36128237    -0.11200
C1369       C  0.67417477  0.70194310  0.35498920    -0.10500
C1370       C  0.68165309  0.72418701  0.36685943    -0.01400
C1371       C  0.67752835  0.71979032  0.38522014    -0.11600
C1372       C  0.66478818  0.69400344  0.39152820    -0.10000
H1373       H  0.65701971  0.65919521  0.35171070     0.07900
H1374       H  0.67758231  0.70467661  0.34077843     0.11600
H1375       H  0.68307834  0.73674146  0.39460757     0.11300
H1376       H  0.66056504  0.69184988  0.40567691     0.07900
C1377       C  0.44215426  0.59128645  0.39389825    -0.11200
C1378       C  0.42805048  0.57840064  0.37933556     0.05900
C1379       C  0.44094988  0.55411701  0.37114646    -0.10000
C1380       C  0.46723135  0.54264749  0.37769397    -0.11600
C1381       C  0.48113511  0.55554421  0.39238117    -0.01400
C1382       C  0.46837384  0.58008903  0.40028551    -0.10500
C1383       C  0.40006745  0.59078491  0.37293553     0.05900
H1384       H  0.43047551  0.54379268  0.35988096     0.07800
H1385       H  0.47665054  0.52377894  0.37130525     0.11300
H1386       H  0.47862719  0.59067217  0.41153765     0.11600
H1387       H  0.43297464  0.61030216  0.40027256     0.07900
C1388       C  0.37831533  0.59818162  0.38528908    -0.11200
C1389       C  0.35335440  0.61304532  0.37981612    -0.10500
C1390       C  0.34956448  0.62094659  0.36185149    -0.01400
C1391       C  0.37068429  0.61248759  0.34931532    -0.11600
C1392       C  0.39571497  0.59742407  0.35480932    -0.10000
H1393       H  0.38095436  0.59298434  0.39930926     0.07900
H1394       H  0.33734760  0.61902687  0.38976191     0.11600
H1395       H  0.36827476  0.61827172  0.33537025     0.11300
H1396       H  0.41222170  0.59208230  0.34504056     0.07900
C1397       C  0.51095642  0.52473169  0.49327754    -0.11200
C1398       C  0.49976986  0.49713465  0.49775798     0.05900
C1399       C  0.50253613  0.47456582  0.48520364    -0.10000
C1400       C  0.51561648  0.47960171  0.46857600    -0.11600
C1401       C  0.52663690  0.50719076  0.46416369    -0.01400
C1402       C  0.52435845  0.52964116  0.47674412    -0.10500
C1403       C  0.48518093  0.49195551  0.51535421     0.05900
H1404       H  0.49476410  0.45290871  0.48824504     0.07800
H1405       H  0.51715290  0.46184191  0.45915713     0.11300
H1406       H  0.53237069  0.55120779  0.47364706     0.11600
H1407       H  0.50885213  0.54281397  0.50240973     0.07900
C1408       C  0.49496181  0.50605004  0.53088163    -0.11200
C1409       C  0.48145996  0.50098500  0.54736221    -0.10500
C1410       C  0.45789040  0.48165547  0.54878632    -0.01400
C1411       C  0.44793360  0.46767713  0.53333211    -0.11600
C1412       C  0.46134942  0.47281961  0.51682409    -0.10000
H1413       H  0.51346193  0.52056059  0.53040542     0.07900
H1414       H  0.48978846  0.51193442  0.55907522     0.11600
H1415       H  0.42984997  0.45264484  0.53401046     0.11300
H1416       H  0.45281007  0.46193903  0.50516001     0.07900
C1417       C  0.70154180  0.40349853  0.37383676    -0.11200
C1418       C  0.67405265  0.39325822  0.37907864     0.05900
C1419       C  0.66777624  0.36346475  0.37728999    -0.10000
C1420       C  0.68887709  0.34423162  0.37062576    -0.11600
C1421       C  0.71628552  0.35467105  0.36526802    -0.01400
C1422       C  0.72230022  0.38449065  0.36688071    -0.10500
C1423       C  0.65229576  0.41397161  0.38634956     0.05900
H1424       H  0.64673193  0.35505256  0.38129521     0.07800
H1425       H  0.68370598  0.32134159  0.36949814     0.11300
H1426       H  0.74327075  0.39314723  0.36291135     0.11600
H1427       H  0.70684361  0.42636648  0.37492911     0.07900
C1428       C  0.66035305  0.43357793  0.39978681    -0.11200
C1429       C  0.64078453  0.45468370  0.40580122    -0.10500
C1430       C  0.61279097  0.45690919  0.39837373    -0.01400
C1431       C  0.60449927  0.43695415  0.38514501    -0.11600
C1432       C  0.62401922  0.41553208  0.37927709    -0.10000
H1433       H  0.68196284  0.43271436  0.40552869     0.07900
H1434       H  0.64781985  0.46969629  0.41602048     0.11600
H1435       H  0.58308806  0.43816355  0.37917045     0.11300
H1436       H  0.61737385  0.40079895  0.36880587     0.07900
C1437       C  0.32545531  0.69730864  0.89106406    -0.11200
C1438       C  0.35303044  0.68830672  0.88506796     0.05900
C1439       C  0.36844850  0.70624346  0.87318611    -0.10000
C1440       C  0.35616928  0.73199683  0.86680863    -0.11600
C1441       C  0.32800580  0.74034080  0.87200045    -0.01400
C1442       C  0.31293177  0.72308237  0.88447928    -0.10500
C1443       C  0.36551338  0.65976584  0.89035108     0.05900
H1444       H  0.38996268  0.70007575  0.86862032     0.07800
H1445       H  0.36850891  0.74501736  0.85740654     0.11300
H1446       H  0.29129971  0.72918843  0.88884883     0.11600
H1447       H  0.31321042  0.68388378  0.90029268     0.07900
C1448       C  0.36739404  0.65131104  0.90834483    -0.11200
C1449       C  0.38159155  0.62539020  0.91312399    -0.10500
C1450       C  0.39378754  0.60737326  0.89996150    -0.01400
C1451       C  0.39068138  0.61527807  0.88194696    -0.11600
C1452       C  0.37685186  0.64123357  0.87721037    -0.10000
H1453       H  0.35883133  0.66524918  0.91871376     0.07900
H1454       H  0.38363015  0.61979326  0.92710825     0.11600
H1455       H  0.39971944  0.60180445  0.87149276     0.11300
H1456       H  0.37531829  0.64706220  0.86322666     0.07900
C1457       C  0.38993959  0.89923642  0.87656782    -0.11200
C1458       C  0.41020062  0.90524006  0.86304382     0.05900
C1459       C  0.40521109  0.89456181  0.84577656    -0.10000
C1460       C  0.38047834  0.87782582  0.84217205    -0.11600
C1461       C  0.36060489  0.87125399  0.85585559    -0.01400
C1462       C  0.36546840  0.88229590  0.87303013    -0.10500
C1463       C  0.43747428  0.92066880  0.86744448     0.05900
H1464       H  0.42063175  0.89891705  0.83515399     0.07800
H1465       H  0.37726924  0.86947179  0.82883485     0.11300
H1466       H  0.35058564  0.87741377  0.88385502     0.11600
H1467       H  0.39357671  0.90682781  0.89003745     0.07900
C1468       C  0.43694018  0.94649609  0.87740832    -0.11200
C1469       C  0.46291093  0.95918913  0.88325114    -0.10500
C1470       C  0.48973447  0.94590356  0.87948857    -0.01400
C1471       C  0.49023539  0.92056244  0.86908518    -0.11600
C1472       C  0.46436620  0.90819021  0.86299820    -0.10000
H1473       H  0.41638270  0.95648155  0.88097607     0.07900
H1474       H  0.46195492  0.97861245  0.89134232     0.11600
H1475       H  0.51064385  0.90985053  0.86603961     0.11300
H1476       H  0.46529748  0.88811646  0.85551626     0.07900
C1477       C  0.28069538  0.76845919  0.76876947    -0.11200
C1478       C  0.25450047  0.75294270  0.76661413     0.05900
C1479       C  0.23514890  0.75137720  0.78118397    -0.10000
C1480       C  0.24201620  0.76450777  0.79746049    -0.11600
C1481       C  0.26815207  0.77990684  0.79948059    -0.01400
C1482       C  0.28726331  0.78202500  0.78492614    -0.10500
C1483       C  0.24717090  0.73901979  0.74918582     0.05900
H1484       H  0.21448068  0.74030801  0.78000656     0.07800
H1485       H  0.22680809  0.76269664  0.80845984     0.11300
H1486       H  0.30768830  0.79358047  0.78616265     0.11600
H1487       H  0.29649149  0.76977932  0.75808059     0.07900
C1488       C  0.25649243  0.75161888  0.73301334    -0.11200
C1489       C  0.24891639  0.73930017  0.71666266    -0.10500
C1490       C  0.23142912  0.71432229  0.71596828    -0.01400
C1491       C  0.22229500  0.70138435  0.73202227    -0.11600
C1492       C  0.23029684  0.71343739  0.74844914    -0.10000
H1493       H  0.26897691  0.77155038  0.73287445     0.07900
H1494       H  0.25613251  0.74986732  0.70449797     0.11600
H1495       H  0.20892265  0.68200402  0.73187841     0.11300
H1496       H  0.22322801  0.70263363  0.76055667     0.07900
C1497       C  0.14593858  0.16017206  0.91189118    -0.11200
C1498       C  0.16352111  0.16058879  0.89650621     0.05900
C1499       C  0.16648628  0.13489725  0.88657806    -0.10000
C1500       C  0.15098236  0.10985143  0.89136483    -0.11600
C1501       C  0.13250622  0.10983405  0.90631714    -0.01400
C1502       C  0.13074254  0.13498758  0.91681445    -0.10500
C1503       C  0.17640463  0.18829531  0.88987720     0.05900
H1504       H  0.17962043  0.13459351  0.87457436     0.07800
H1505       H  0.15274700  0.09072684  0.88303222     0.11300
H1506       H  0.11659090  0.13560850  0.92836616     0.11600
H1507       H  0.14341293  0.17957571  0.91989076     0.07900
C1508       C  0.15942588  0.21370000  0.88962861    -0.11200
C1509       C  0.17001745  0.23921461  0.88186860    -0.10500
C1510       C  0.19796760  0.24012390  0.87430226    -0.01400
C1511       C  0.21550728  0.21510861  0.87506667    -0.11600
C1512       C  0.20471626  0.18931835  0.88267452    -0.10000
H1513       H  0.13742643  0.21356286  0.89482880     0.07900
H1514       H  0.15603840  0.25819731  0.88152142     0.11600
H1515       H  0.23715017  0.21524915  0.86932702     0.11300
H1516       H  0.21835105  0.17009155  0.88276811     0.07900
C1517       C  0.90726398  0.10901385  0.85524822    -0.11200
C1518       C  0.92152587  0.11751057  0.87102473     0.05900
C1519       C  0.90954838  0.14041382  0.88102166    -0.10000
C1520       C  0.88455982  0.15489769  0.87526894    -0.11600
C1521       C  0.87064478  0.14688310  0.85937873    -0.01400
C1522       C  0.88212191  0.12369034  0.84942671    -0.10500
C1523       C  0.94914055  0.10340863  0.87705582     0.05900
H1524       H  0.91943061  0.14714381  0.89344236     0.07800
H1525       H  0.87618777  0.17257509  0.88328560     0.11300
H1526       H  0.87169965  0.11694850  0.83716938     0.11600
H1527       H  0.91591221  0.09153350  0.84719495     0.07900
C1528       C  0.95370395  0.07320793  0.87553476    -0.11200
C1529       C  0.97917006  0.06030371  0.88230638    -0.10500
C1530       C  0.00042106  0.07735091  0.89078227    -0.01400
C1531       C  0.99618401  0.10751106  0.89183748    -0.11600
C1532       C  0.97104598  0.12036467  0.88497534    -0.10000
H1533       H  0.93726412  0.05946233  0.86957362     0.07900
H1534       H  0.98192750  0.03696788  0.88129056     0.11600
H1535       H  0.01233374  0.12128580  0.89807150     0.11300
H1536       H  0.96875910  0.14373860  0.88593742     0.07900
C1537       C  0.15200861  0.92919725  0.90168270    -0.11200
C1538       C  0.16228639  0.92946861  0.88396619     0.05900
C1539       C  0.15246790  0.95163016  0.87241209    -0.10000
C1540       C  0.13319869  0.97297838  0.87843952    -0.11600
C1541       C  0.12381129  0.97308222  0.89624118    -0.01400
C1542       C  0.13329537  0.95098477  0.90780517    -0.10500
C1543       C  0.18377927  0.90735545  0.87773114     0.05900
H1544       H  0.16025250  0.95306256  0.85880693     0.07800
H1545       H  0.12640337  0.99001142  0.86931692     0.11300
H1546       H  0.12616306  0.95051960  0.92157701     0.11600
H1547       H  0.15840949  0.91216945  0.91089275     0.07900
C1548       C  0.20471245  0.89584507  0.88953582    -0.11200
C1549       C  0.22530941  0.87567814  0.88364138    -0.10500
C1550       C  0.22594319  0.86709015  0.86572834    -0.01400
C1551       C  0.20523197  0.87844846  0.85386557    -0.11600
C1552       C  0.18413065  0.89806677  0.85984186    -0.10000
H1553       H  0.20573144  0.90289262  0.90327675     0.07900
H1554       H  0.24135635  0.86748185  0.89298054     0.11600
H1555       H  0.20525329  0.87199569  0.83998581     0.11300
H1556       H  0.16807716  0.90586379  0.85040597     0.07900
C1557       C  0.85399578  0.85925001  0.12958590    -0.11200
C1558       C  0.85410394  0.83318576  0.11988215     0.05900
C1559       C  0.86901939  0.83225390  0.10348877    -0.10000
C1560       C  0.88480787  0.85647002  0.09745642    -0.11600
C1561       C  0.88597677  0.88190376  0.10775954    -0.01400
C1562       C  0.86986741  0.88326375  0.12364416    -0.10500
C1563       C  0.84083290  0.80656402  0.12768197     0.05900
H1564       H  0.86961938  0.81241189  0.09577098     0.07800
H1565       H  0.89706940  0.85488427  0.08515286     0.11300
H1566       H  0.87007934  0.90272772  0.13172182     0.11600
H1567       H  0.84221539  0.86081634  0.14206743     0.07900
C1568       C  0.84516937  0.80003195  0.14582647    -0.11200
C1569       C  0.83424843  0.77438064  0.15322329    -0.10500
C1570       C  0.81853808  0.75474135  0.14269013    -0.01400
C1571       C  0.81359672  0.76141704  0.12464067    -0.11600
C1572       C  0.82482633  0.78703824  0.11715819    -0.10000
H1573       H  0.85780434  0.81438539  0.15422051     0.07900
H1574       H  0.83846434  0.76972001  0.16716544     0.11600
H1575       H  0.80166420  0.74651005  0.11622216     0.11300
H1576       H  0.82104810  0.79157871  0.10316192     0.07900
C1577       C  0.05942350  0.91857034  0.13590748    -0.11200
C1578       C  0.07030295  0.89239033  0.12891999     0.05900
C1579       C  0.05391372  0.87755597  0.11602560    -0.10000
C1580       C  0.02751836  0.88884742  0.11000303    -0.11600
C1581       C  0.01689735  0.91524799  0.11671939    -0.01400
C1582       C  0.03296766  0.92997114  0.12979936    -0.10500
C1583       C  0.09868895  0.88042084  0.13485325     0.05900
H1584       H  0.06145579  0.85706681  0.11063781     0.07800
H1585       H  0.01554326  0.87699746  0.09993301     0.11300
H1586       H  0.02523355  0.95039995  0.13516978     0.11600
H1587       H  0.07166982  0.93052269  0.14579304     0.07900
C1588       C  0.11781749  0.86807767  0.12236006    -0.11200
C1589       C  0.14359428  0.85482381  0.12791123    -0.10500
C1590       C  0.15086360  0.85365599  0.14607984    -0.01400
C1591       C  0.13232070  0.86687943  0.15856174    -0.11600
C1592       C  0.10644947  0.88019976  0.15299048    -0.10000
H1593       H  0.11269675  0.86842487  0.10826087     0.07900
H1594       H  0.15754495  0.84493802  0.11798946     0.11600
H1595       H  0.13741375  0.86623110  0.17265910     0.11300
H1596       H  0.09205532  0.88941157  0.16291681     0.07900
C1597       C  0.03734398  0.01968939  0.99531699    -0.11200
C1598       C  0.01528751  0.99845877  0.99604868     0.05900
C1599       C  0.00626537  0.98543208  0.98001875    -0.10000
C1600       C  0.01865013  0.99372462  0.96371819    -0.11600
C1601       C  0.04053688  0.01502049  0.96305992    -0.01400
C1602       C  0.04991589  0.02774993  0.97903338    -0.10500
C1603       C  0.00170873  0.99008473  0.01341387     0.05900
H1604       H  0.98979839  0.96862186  0.98004634     0.07800
H1605       H  0.01108152  0.98342434  0.95160267     0.11300
H1606       H  0.06664585  0.04431006  0.97891563     0.11600
H1607       H  0.04456182  0.03059541  0.00730082     0.07900
C1608       C  0.01834880  0.98951784  0.02916637    -0.11200
C1609       C  0.00557894  0.98211462  0.04548097    -0.10500
C1610       C  0.97601845  0.97458284  0.04641212    -0.01400
C1611       C  0.95934565  0.97478351  0.03075463    -0.11600
C1612       C  0.97198533  0.98271280  0.01445009    -0.10000
H1613       H  0.04136900  0.99442377  0.02889551     0.07900
H1614       H  0.01900423  0.98180855  0.05736554     0.11600
H1615       H  0.93647110  0.96920020  0.03116405     0.11300
H1616       H  0.95831648  0.98341902  0.00269650     0.07900
C1617       C  0.64812292  0.33828864  0.10559797    -0.11200
C1618       C  0.64481103  0.32728283  0.12299844     0.05900
C1619       C  0.62804406  0.34304572  0.13530876    -0.10000
C1620       C  0.61442617  0.36897637  0.13027527    -0.11600
C1621       C  0.61711857  0.37967004  0.11277796    -0.01400
C1622       C  0.63427332  0.36419620  0.10050547    -0.10500
C1623       C  0.65807846  0.29913040  0.12835085     0.05900
H1624       H  0.62545224  0.33525863  0.14887240     0.07800
H1625       H  0.60142540  0.38045341  0.14003921     0.11300
H1626       H  0.63668372  0.37192487  0.08692189     0.11600
H1627       H  0.66080699  0.32647679  0.09583103     0.07900
C1628       C  0.64155640  0.27871644  0.13797303    -0.11200
C1629       C  0.65408649  0.25275852  0.14387750    -0.10500
C1630       C  0.68347139  0.24661657  0.14034358    -0.01400
C1631       C  0.69993766  0.26669840  0.13039683    -0.11600
C1632       C  0.68729856  0.29271354  0.12438184    -0.10000
H1633       H  0.61887901  0.28290203  0.14097593     0.07900
H1634       H  0.64079226  0.23760838  0.15140662     0.11600
H1635       H  0.72264064  0.26248961  0.12749724     0.11300
H1636       H  0.70053392  0.30815233  0.11704336     0.07900
C1637       C  0.56066907  0.05178399  0.13734942    -0.11200
C1638       C  0.57444780  0.07550872  0.12896611     0.05900
C1639       C  0.56099924  0.08858917  0.11415167    -0.10000
C1640       C  0.53469549  0.07800845  0.10765792    -0.11600
C1641       C  0.52111905  0.05403373  0.11577047    -0.01400
C1642       C  0.53423814  0.04102042  0.13074169    -0.10500
C1643       C  0.60263568  0.08708208  0.13547814     0.05900
H1644       H  0.57072019  0.10728325  0.10764048     0.07800
H1645       H  0.52503471  0.08860087  0.09615608     0.11300
H1646       H  0.52414012  0.02255050  0.13727150     0.11600
H1647       H  0.57058249  0.04127591  0.14879297     0.07900
C1648       C  0.60765434  0.09133447  0.15378139    -0.11200
C1649       C  0.63291833  0.10548338  0.15956881    -0.10500
C1650       C  0.65355900  0.11547587  0.14714432    -0.01400
C1651       C  0.64924032  0.10980594  0.12895513    -0.11600
C1652       C  0.62408040  0.09577660  0.12319294    -0.10000
H1653       H  0.59146253  0.08494806  0.16353640     0.07900
H1654       H  0.63575824  0.10958659  0.17367640     0.11600
H1655       H  0.66486365  0.11709740  0.11907691     0.11300
H1656       H  0.62109223  0.09226830  0.10902965     0.07900
C1657       C  0.72987464  0.21213399  0.24220056    -0.11200
C1658       C  0.74916613  0.23585563  0.24317712     0.05900
C1659       C  0.76395633  0.24457457  0.22761048    -0.10000
C1660       C  0.75926647  0.23019131  0.21147479    -0.11600
C1661       C  0.73961204  0.20686414  0.21050251    -0.01400
C1662       C  0.72508758  0.19785523  0.22603710    -0.10500
C1663       C  0.75393579  0.25121941  0.26038759     0.05900
H1664       H  0.77869756  0.26290732  0.22778587     0.07800
H1665       H  0.77067591  0.23770083  0.19966164     0.11300
H1666       H  0.70984923  0.17992940  0.22567039     0.11600
H1667       H  0.71857663  0.20439197  0.25398556     0.07900
C1668       C  0.73087404  0.25500233  0.27253508    -0.11200
C1669       C  0.73570437  0.26775712  0.28916768    -0.10500
C1670       C  0.76359844  0.27736202  0.29394462    -0.01400
C1671       C  0.78645508  0.27460223  0.28161592    -0.11600
C1672       C  0.78170893  0.26157920  0.26504789    -0.10000
H1673       H  0.70908372  0.24792957  0.26924961     0.07900
H1674       H  0.71766490  0.26970258  0.29840990     0.11600
H1675       H  0.80823599  0.28161231  0.28501126     0.11300
H1676       H  0.80006928  0.25876067  0.25614581     0.07900
C1677       C  0.81962562  0.10448419  0.12050488    -0.11200
C1678       C  0.83408925  0.08522198  0.13212142     0.05900
C1679       C  0.82674543  0.08545355  0.15034770    -0.10000
C1680       C  0.80477800  0.10386102  0.15666269    -0.11600
C1681       C  0.78998502  0.12258741  0.14491424    -0.01400
C1682       C  0.79784813  0.12295692  0.12683033    -0.10500
C1683       C  0.85531848  0.06375557  0.12499736     0.05900
H1684       H  0.83722270  0.07067086  0.15961079     0.07800
H1685       H  0.79908347  0.10316330  0.17068857     0.11300
H1686       H  0.78672988  0.13711815  0.11747793     0.11600
H1687       H  0.82501397  0.10514677  0.10643960     0.07900
C1688       C  0.84967671  0.04972687  0.10873936    -0.11200
C1689       C  0.86843269  0.02830214  0.10234565    -0.10500
C1690       C  0.89325818  0.02023659  0.11206340    -0.01400
C1691       C  0.89945497  0.03467513  0.12810676    -0.11600
C1692       C  0.88062586  0.05623248  0.13453131    -0.10000
H1693       H  0.83018900  0.05461086  0.10119228     0.07900
H1694       H  0.86305687  0.01750785  0.08996042     0.11600
H1695       H  0.91851697  0.02891567  0.13584470     0.11300
H1696       H  0.88576798  0.06689440  0.14699698     0.07900
loop_ 
_geom_bond_atom_site_label_1 
_geom_bond_atom_site_label_2 
_geom_bond_distance 
_geom_bond_site_symmetry_2 
_ccdc_geom_bond_type 
In1           O3   2.225       .  S
In1           O4   2.253       .  S
In1          O12   2.247       .  S
In1           O6   2.239       .  S
In1           O8   2.260       .  S
In1           O9   2.250       .  S
In1          O10   2.231       .  S
In1          O13   2.234       .  S
C2            O8   1.263       .  A
C2           O10   1.259       .  A
C2         C1630   1.478       .  S
O3           C11   1.261       .  A
O4           C11   1.264       .  A
C5           O12   1.262       .  A
C5            O6   1.262       .  A
C5         C1681   1.476       .  S
C7            O9   1.264       .  A
C7           O13   1.261       .  A
C7         C1661   1.477       .  S
C11        C1650   1.476       .  S
In14         O16   2.232       .  S
In14         O17   2.261       .  S
In14         O25   2.235       .  S
In14         O19   2.255       .  S
In14         O21   2.250       .  S
In14         O22   2.258       .  S
In14         O23   2.226       .  S
In14         O26   2.235       .  S
C15          O21   1.263       .  A
C15          O23   1.260       .  A
C15        C1581   1.474   1_655  S
O16          C24   1.261       .  A
O17          C24   1.263       .  A
C18          O25   1.261       .  A
C18          O19   1.262       .  A
C18        C1690   1.478   1_565  S
C20          O22   1.263       .  A
C20          O26   1.259       .  A
C20        C1610   1.475       .  S
C24        C1561   1.477       .  S
In27         O29   2.245       .  S
In27         O30   2.252       .  S
In27         O38   2.249       .  S
In27         O32   2.245       .  S
In27         O34   2.273       .  S
In27         O35   2.264       .  S
In27         O36   2.237       .  S
In27         O39   2.244       .  S
C28          O34   1.262       .  A
C28          O36   1.259       .  A
C28        C1530   1.481       .  S
O29          C37   1.262       .  A
O30          C37   1.264       .  A
C31          O38   1.261   1_565  A
C31          O32   1.261   1_565  A
C31        C1541   1.474       .  S
C33          O35   1.263       .  A
C33          O39   1.260       .  A
C33        C1501   1.480       .  S
C37        C1601   1.480       .  S
In40         O42   2.251       .  S
In40         O43   2.240       .  S
In40         O51   2.246       .  S
In40         O45   2.246       .  S
In40         O47   2.276       .  S
In40         O48   2.254       .  S
In40         O49   2.229       .  S
In40         O52   2.227       .  S
C41          O47   1.263       .  A
C41          O49   1.257       .  A
C41        C1441   1.480       .  S
O42          C50   1.263       .  A
O43          C50   1.262       .  A
C44          O51   1.260       .  A
C44          O45   1.261       .  A
C44        C1550   1.473       .  S
C46          O48   1.262       .  A
C46          O52   1.259       .  A
C46        C1461   1.474       .  S
C50        C1481   1.478       .  S
In53         O55   2.260       .  S
In53         O56   2.254       .  S
In53         O64   2.246       .  S
In53         O58   2.265       .  S
In53         O60   2.274       .  S
In53         O61   2.265       .  S
In53         O62   2.228       .  S
In53         O65   2.237       .  S
C54          O60   1.265       .  A
C54          O62   1.260       .  A
C54        C1381   1.482       .  S
O55          C63   1.262       .  A
O56          C63   1.262       .  A
C57          O64   1.261       .  A
C57          O58   1.263       .  A
C57        C1430   1.484       .  S
C59          O61   1.263       .  A
C59          O65   1.260       .  A
C59        C1361   1.480       .  S
C63        C1401   1.484       .  S
In66         O68   2.249       .  S
In66         O69   2.245       .  S
In66         O77   2.228       .  S
In66         O71   2.270       .  S
In66         O73   2.268       .  S
In66         O74   2.253       .  S
In66         O75   2.222       .  S
In66         O78   2.229       .  S
C67          O73   1.265       .  A
C67          O75   1.259       .  A
C67        C1350   1.478       .  S
O68          C76   1.261       .  A
O69          C76   1.260       .  A
C70          O77   1.259       .  A
C70          O71   1.264       .  A
C70        C1421   1.479       .  S
C72          O74   1.263       .  A
C72          O78   1.261       .  A
C72        C1321   1.473       .  S
C76        C1670   1.477       .  S
In79         O81   2.234       .  S
In79         O82   2.271       .  S
In79         O90   2.247       .  S
In79         O84   2.259       .  S
In79         O86   2.260       .  S
In79         O87   2.260       .  S
In79         O88   2.246       .  S
In79         O91   2.238       .  S
C80          O86   1.261       .  A
C80          O88   1.260       .  A
C80        C1270   1.478       .  S
O81          C89   1.258       .  A
O82          C89   1.262       .  A
C83          O90   1.262       .  A
C83          O84   1.262       .  A
C83        C1301   1.483       .  S
C85          O87   1.264       .  A
C85          O91   1.262       .  A
C85        C1490   1.481       .  S
C89        C1281   1.480       .  S
In92         O94   2.235       .  S
In92         O95   2.263       .  S
In92        O103   2.249       .  S
In92         O97   2.252       .  S
In92         O99   2.256       .  S
In92        O100   2.256       .  S
In92        O101   2.221       .  S
In92        O104   2.247       .  S
C93          O99   1.263       .  A
C93         O101   1.259       .  A
C93        C1230   1.473       .  S
O94         C102   1.260       .  A
O95         C102   1.263       .  A
C96         O103   1.262       .  A
C96          O97   1.261       .  A
C96        C1310   1.481       .  S
C98         O100   1.264       .  A
C98         O104   1.262       .  A
C98        C1410   1.483       .  S
C102       C1241   1.480       .  S
In105       O107   2.242       .  S
In105       O108   2.254       .  S
In105       O116   2.228       .  S
In105       O110   2.271       .  S
In105       O112   2.275       .  S
In105       O113   2.245       .  S
In105       O114   2.230       .  S
In105       O117   2.236       .  S
C106        O112   1.264       .  A
C106        O114   1.258       .  A
C106       C1290   1.481   1_655  S
O107        C115   1.261       .  A
O108        C115   1.261       .  A
C109        O116   1.260       .  A
C109        O110   1.264       .  A
C109       C1210   1.481       .  S
C111        O113   1.262       .  A
C111        O117   1.262       .  A
C111       C1161   1.474       .  S
C115       C1181   1.478       .  S
In118       O120   2.231       .  S
In118       O121   2.250       .  S
In118       O129   2.229       .  S
In118       O123   2.258       .  S
In118       O125   2.253       .  S
In118       O126   2.246       .  S
In118       O127   2.229       .  S
In118       O130   2.222       .  S
C119        O125   1.265       .  A
C119        O127   1.261       .  A
C119       C1130   1.478       .  S
O120        C128   1.260       .  A
O121        C128   1.264       .  A
C122        O129   1.260       .  A
C122        O123   1.264       .  A
C122       C1201   1.476       .  S
C124        O126   1.265       .  A
C124        O130   1.262       .  A
C124       C1221   1.474       .  S
C128       C1141   1.476       .  S
In131       O133   2.253       .  S
In131       O134   2.256       .  S
In131       O142   2.231   1_545  S
In131       O136   2.255   1_545  S
In131       O138   2.268       .  S
In131       O139   2.240       .  S
In131       O140   2.223       .  S
In131       O143   2.255       .  S
C132        O138   1.263       .  A
C132        O140   1.259       .  A
C132       C1641   1.477       .  S
O133        C141   1.260       .  A
O134        C141   1.260       .  A
C135        O142   1.260       .  A
C135        O136   1.262       .  A
C135       C1101   1.476       .  S
C137        O139   1.261       .  A
C137        O143   1.261       .  A
C137       C1070   1.476       .  S
C141       C1090   1.481       .  S
In144       O146   2.253       .  S
In144       O147   2.242       .  S
In144       O155   2.240       .  S
In144       O149   2.260       .  S
In144       O151   2.266       .  S
In144       O152   2.250       .  S
In144       O153   2.224       .  S
In144       O156   2.233       .  S
C145        O151   1.264       .  A
C145        O153   1.259       .  A
C145       C1030   1.477       .  S
O146        C154   1.262       .  A
O147        C154   1.261       .  A
C148        O155   1.260       .  A
C148        O149   1.263       .  A
C148       C1110   1.479       .  S
C150        O152   1.263       .  A
C150        O156   1.261       .  A
C150       C1590   1.476       .  S
C154       C1041   1.479       .  S
In157       O159   2.238       .  S
In157       O160   2.266       .  S
In157       O168   2.246       .  S
In157       O162   2.260       .  S
In157       O164   2.261       .  S
In157       O165   2.253       .  S
In157       O166   2.235       .  S
In157       O169   2.241       .  S
C158        O164   1.264       .  A
C158        O166   1.260       .  A
C158        C990   1.477       .  S
O159        C167   1.259       .  A
O160        C167   1.262       .  A
C161        O168   1.260       .  A
C161        O162   1.262       .  A
C161       C1001   1.480       .  S
C163        O165   1.264       .  A
C163        O169   1.262       .  A
C163       C1050   1.480       .  S
C167       C1390   1.480       .  S
In170       O172   2.237       .  S
In170       O173   2.270       .  S
In170       O181   2.249       .  S
In170       O175   2.247       .  S
In170       O177   2.268       .  S
In170       O178   2.247       .  S
In170       O179   2.227       .  S
In170       O182   2.236       .  S
C171        O177   1.262       .  A
C171        O179   1.258       .  A
C171       C1330   1.476   1_455  S
O172        C180   1.258       .  A
O173        C180   1.261       .  A
C174        O181   1.261       .  A
C174        O175   1.261       .  A
C174       C1010   1.478       .  S
C176        O178   1.264       .  A
C176        O182   1.263       .  A
C176       C1190   1.477       .  S
C180        C961   1.480       .  S
In183       O185   2.236       .  S
In183       O186   2.280       .  S
In183       O194   2.256       .  S
In183       O188   2.254       .  S
In183       O190   2.265       .  S
In183       O191   2.249       .  S
In183       O192   2.241       .  S
In183       O195   2.234       .  S
C184        O190   1.263       .  A
C184        O192   1.260       .  A
C184        C921   1.478       .  S
O185        C193   1.257       .  A
O186        C193   1.262       .  A
C187        O194   1.262       .  A
C187        O188   1.260       .  A
C187        C941   1.482       .  S
C189        O191   1.264       .  A
C189        O195   1.262       .  A
C189       C1150   1.476       .  S
C193       C1521   1.482       .  S
In196       O198   2.227       .  S
In196       O199   2.253       .  S
In196       O207   2.245   1_565  S
In196       O201   2.259   1_565  S
In196       O203   2.274       .  S
In196       O204   2.255       .  S
In196       O205   2.240       .  S
In196       O208   2.244       .  S
C197        O203   1.260       .  A
C197        O205   1.255       .  A
C197       C1470   1.476       .  S
O198        C206   1.262       .  A
O199        C206   1.266       .  A
C200        O207   1.260       .  A
C200        O201   1.262       .  A
C200        C950   1.481       .  S
C202        O204   1.262       .  A
C202        O208   1.260       .  A
C202       C1081   1.480       .  S
C206        C901   1.478       .  S
In209       O211   2.241       .  S
In209       O212   2.261       .  S
In209       O220   2.243       .  S
In209       O214   2.245       .  S
In209       O216   2.265       .  S
In209       O217   2.258       .  S
In209       O218   2.220       .  S
In209       O221   2.252       .  S
C210        O216   1.263       .  A
C210        O218   1.261       .  A
C210        C841   1.477       .  S
O211        C219   1.261       .  A
O212        C219   1.263       .  A
C213        O220   1.260       .  A
C213        O214   1.261       .  A
C213        C890   1.476       .  S
C215        O217   1.262       .  A
C215        O221   1.260       .  A
C215        C861   1.483       .  S
C219       C1450   1.481       .  S
In222       O224   2.241       .  S
In222       O225   2.255       .  S
In222       O233   2.246       .  S
In222       O227   2.239       .  S
In222       O229   2.230       .  S
In222       O230   2.254       .  S
In222       O231   2.279       .  S
In222       O234   2.250       .  S
C223        O229   1.256       .  A
C223        O231   1.261       .  A
C223       C1510   1.479       .  S
O224        C232   1.261       .  A
O225        C232   1.263       .  A
C226        O233   1.263       .  A
C226        O227   1.262       .  A
C226        C881   1.477       .  S
C228        O230   1.260       .  A
C228        O234   1.260       .  A
C228        C821   1.478       .  S
C232        C801   1.478       .  S
In235       O237   2.241       .  S
In235       O238   2.258       .  S
In235       O246   2.232       .  S
In235       O240   2.270       .  S
In235       O242   2.267       .  S
In235       O243   2.255       .  S
In235       O244   2.224       .  S
In235       O247   2.244       .  S
C236        O242   1.264       .  A
C236        O244   1.259       .  A
C236        C761   1.478       .  S
O237        C245   1.261       .  A
O238        C245   1.262       .  A
C239        O246   1.260       .  A
C239        O240   1.263       .  A
C239        C781   1.481       .  S
C241        O243   1.263       .  A
C241        O247   1.261       .  A
C241       C1621   1.480       .  S
C245        C870   1.480       .  S
In248       O250   2.239       .  S
In248       O251   2.250       .  S
In248       O259   2.240       .  S
In248       O253   2.253       .  S
In248       O255   2.251       .  S
In248       O256   2.262       .  S
In248       O257   2.231       .  S
In248       O260   2.228       .  S
C249        O255   1.264       .  A
C249        O257   1.261       .  A
C249       C1570   1.475       .  S
O250        C258   1.261       .  A
O251        C258   1.262       .  A
C252        O259   1.261       .  A
C252        O253   1.262       .  A
C252        C790   1.478       .  S
C254        O256   1.263       .  A
C254        O260   1.259       .  A
C254        C730   1.477       .  S
C258        C741   1.477       .  S
In261       O263   2.256       .  S
In261       O264   2.247       .  S
In261       O272   2.244       .  S
In261       O266   2.263   1_565  S
In261       O268   2.262       .  S
In261       O269   2.262       .  S
In261       O270   2.229       .  S
In261       O273   2.230       .  S
C262        O268   1.263   1_655  A
C262        O270   1.259   1_655  A
C262        C661   1.476       .  S
O263        C271   1.260       .  A
O264        C271   1.259       .  A
C265        O272   1.260   1_545  A
C265        O266   1.262       .  A
C265        C701   1.480       .  S
C267        O269   1.263       .  A
C267        O273   1.259       .  A
C267       C1261   1.475       .  S
C271        C690   1.478       .  S
In274       O276   2.246       .  S
In274       O277   2.252       .  S
In274       O285   2.236       .  S
In274       O279   2.263       .  S
In274       O281   2.263       .  S
In274       O282   2.265       .  S
In274       O283   2.228       .  S
In274       O286   2.239       .  S
C275        O281   1.265       .  A
C275        O283   1.261       .  A
C275       C1250   1.480       .  S
O276        C284   1.261       .  A
O277        C284   1.263       .  A
C278        O285   1.260       .  A
C278        O279   1.263       .  A
C278        C710   1.481       .  S
C280        O282   1.263       .  A
C280        O286   1.260       .  A
C280        C641   1.480       .  S
C284        C830   1.481       .  S
In287       O289   2.233       .  S
In287       O290   2.252       .  S
In287       O298   2.233   1_545  S
In287       O292   2.256   1_545  S
In287       O294   2.262       .  S
In287       O295   2.252       .  S
In287       O296   2.226       .  S
In287       O299   2.237       .  S
C288        O294   1.262       .  A
C288        O296   1.258       .  A
C288        C601   1.473   1_655  S
O289        C297   1.262       .  A
O290        C297   1.264       .  A
C291        O298   1.260       .  A
C291        O292   1.262       .  A
C291        C621   1.477       .  S
C293        O295   1.262       .  A
C293        O299   1.260       .  A
C293        C681   1.476       .  S
C297       C1341   1.478       .  S
In300       O302   2.241       .  S
In300       O303   2.273       .  S
In300       O311   2.244       .  S
In300       O305   2.255       .  S
In300       O307   2.265       .  S
In300       O308   2.246       .  S
In300       O309   2.237       .  S
In300       O312   2.235       .  S
C301        O307   1.262       .  A
C301        O309   1.259       .  A
C301       C1370   1.475       .  S
O302        C310   1.258       .  A
O303        C310   1.262       .  A
C304        O311   1.261       .  A
C304        O305   1.263       .  A
C304        C630   1.479       .  S
C306        O308   1.265       .  A
C306        O312   1.263       .  A
C306        C750   1.478       .  S
C310        C581   1.482       .  S
In313       O315   2.242       .  S
In313       O316   2.262       .  S
In313       O324   2.244   1_545  S
In313       O318   2.262   1_545  S
In313       O320   2.266       .  S
In313       O321   2.260       .  S
In313       O322   2.230       .  S
In313       O325   2.245       .  S
C314        O320   1.264       .  A
C314        O322   1.260       .  A
C314        C650   1.476       .  S
O315        C323   1.260       .  A
O316        C323   1.263       .  A
C317        O324   1.261       .  A
C317        O318   1.263       .  A
C317        C561   1.482       .  S
C319        O321   1.265       .  A
C319        O325   1.262       .  A
C319        C541   1.483       .  S
C323       C1121   1.480       .  S
In326       O328   2.230       .  S
In326       O329   2.257       .  S
In326       O337   2.254       .  S
In326       O331   2.249       .  S
In326       O333   2.253       .  S
In326       O334   2.249       .  S
In326       O335   2.245       .  S
In326       O338   2.237       .  S
C327        O333   1.260       .  A
C327        O335   1.258       .  A
C327       C1170   1.474       .  S
O328        C336   1.260       .  A
O329        C336   1.263       .  A
C330        O337   1.261       .  A
C330        O331   1.261       .  A
C330        C570   1.481       .  S
C332        O334   1.262       .  A
C332        O338   1.260       .  A
C332        C521   1.475       .  S
C336        C670   1.476       .  S
In339       O341   2.225       .  S
In339       O342   2.232       .  S
In339       O350   2.247       .  S
In339       O344   2.244       .  S
In339       O346   2.270       .  S
In339       O347   2.276       .  S
In339       O348   2.219       .  S
In339       O351   2.214       .  S
C340        O346   1.264       .  A
C340        O348   1.259       .  A
C340        C810   1.476   1_655  S
O341        C349   1.264       .  A
O342        C349   1.265       .  A
C343        O350   1.258       .  A
C343        O344   1.259       .  A
C343        C501   1.471       .  S
C345        O347   1.262       .  A
C345        O351   1.257       .  A
C345        C930   1.476       .  S
C349        C481   1.472       .  S
In352       O354   2.247       .  S
In352       O355   2.231       .  S
In352       O363   2.236       .  S
In352       O357   2.249       .  S
In352       O359   2.268       .  S
In352       O360   2.258       .  S
In352       O361   2.221       .  S
In352       O364   2.230       .  S
C353        O359   1.264       .  A
C353        O361   1.258       .  A
C353        C910   1.476       .  S
O354        C362   1.263       .  A
O355        C362   1.262       .  A
C356        O363   1.259       .  A
C356        O357   1.262       .  A
C356        C510   1.471       .  S
C358        O360   1.261       .  A
C358        O364   1.260       .  A
C358        C850   1.476       .  S
C362        C530   1.476       .  S
In365       O367   2.230       .  S
In365       O368   2.264       .  S
In365       O376   2.236       .  S
In365       O370   2.250       .  S
In365       O372   2.259       .  S
In365       O373   2.247       .  S
In365       O374   2.234       .  S
In365       O377   2.239       .  S
C366        O372   1.262       .  A
C366        O374   1.260       .  A
C366        C721   1.475   1_455  S
O367        C375   1.259       .  A
O368        C375   1.262       .  A
C369        O376   1.260       .  A
C369        O370   1.262       .  A
C369        C470   1.475       .  S
C371        O373   1.263       .  A
C371        O377   1.262       .  A
C371        C490   1.476       .  S
C375       C1021   1.478       .  S
In378       O380   2.236       .  S
In378       O381   2.257       .  S
In378       O389   2.239       .  S
In378       O383   2.257       .  S
In378       O385   2.260       .  S
In378       O386   2.252       .  S
In378       O387   2.236       .  S
In378       O390   2.241       .  S
C379        O385   1.263       .  A
C379        O387   1.260       .  A
C379       C1061   1.475       .  S
O380        C388   1.261       .  A
O381        C388   1.264       .  A
C382        O389   1.259       .  A
C382        O383   1.262       .  A
C382        C461   1.478       .  S
C384        O386   1.263       .  A
C384        O390   1.261       .  A
C384        C441   1.478       .  S
C388        C770   1.479       .  S
In391       O393   2.257       .  S
In391       O394   2.253       .  S
In391       O402   2.243       .  S
In391       O396   2.266       .  S
In391       O398   2.272       .  S
In391       O399   2.255       .  S
In391       O400   2.229       .  S
In391       O403   2.231       .  S
C392        O398   1.264       .  A
C392        O400   1.259       .  A
C392        C590   1.481       .  S
O393        C401   1.261       .  A
O394        C401   1.260       .  A
C395        O402   1.259       .  A
C395        O396   1.263       .  A
C395        C430   1.481   1_565  S
C397        O399   1.264       .  A
C397        O403   1.261       .  A
C397        C981   1.476       .  S
C401        C550   1.483       .  S
In404       O406   2.252       .  S
In404       O407   2.239       .  S
In404       O415   2.232       .  S
In404       O409   2.261       .  S
In404       O411   2.277       .  S
In404       O412   2.237       .  S
In404       O413   2.220       .  S
In404       O416   2.247       .  S
C405        O411   1.264       .  A
C405        O413   1.257       .  A
C405        C970   1.479       .  S
O406        C414   1.261       .  A
O407        C414   1.260       .  A
C408        O415   1.261       .  A
C408        O409   1.264       .  A
C408        C421   1.480       .  S
C410        O412   1.261       .  A
C410        O416   1.262       .  A
C410        C610   1.472       .  S
C414        C450   1.476       .  S
C417        C418   1.403       .  A
C417        C422   1.397       .  A
C417        H427   1.083       .  S
C418        C423   1.483       .  S
C418        C419   1.406       .  A
C419        C420   1.403       .  A
C419        H424   1.083       .  S
C420        C421   1.405       .  A
C420        H425   1.083       .  S
C421        C422   1.405       .  A
C422        H426   1.083       .  S
C423        C428   1.404       .  A
C423        C432   1.405       .  A
C428        C429   1.398       .  A
C428        H433   1.083       .  S
C429        C430   1.406       .  A
C429        H434   1.084   1_545  S
C430        C431   1.405       .  A
C431        C432   1.402       .  A
C431        H435   1.082       .  S
C432        H436   1.083       .  S
C437        C438   1.407       .  A
C437        C442   1.399       .  A
C437        H447   1.084       .  S
C438        C443   1.487       .  S
C438        C439   1.406       .  A
C439        C440   1.397       .  A
C439        H444   1.082       .  S
C440        C441   1.404       .  A
C440        H445   1.084       .  S
C441        C442   1.404       .  A
C442        H446   1.082       .  S
C443        C448   1.407       .  A
C443        C452   1.406       .  A
C448        C449   1.399       .  A
C448        H453   1.082       .  S
C449        C450   1.403       .  A
C449        H454   1.084       .  S
C450        C451   1.404       .  A
C451        C452   1.397       .  A
C451        H455   1.082       .  S
C452        H456   1.084       .  S
C457        C458   1.404       .  A
C457        C462   1.397       .  A
C457        H467   1.083       .  S
C458        C463   1.482       .  S
C458        C459   1.406       .  A
C459        C460   1.399       .  A
C459        H464   1.083       .  S
C460        C461   1.404       .  A
C460        H465   1.083       .  S
C461        C462   1.405       .  A
C462        H466   1.083       .  S
C463        C468   1.406       .  A
C463        C472   1.404       .  A
C468        C469   1.399       .  A
C468        H473   1.083       .  S
C469        C470   1.404       .  A
C469        H474   1.083       .  S
C470        C471   1.404       .  A
C471        C472   1.396       .  A
C471        H475   1.083       .  S
C472        H476   1.083       .  S
C477        C478   1.408       .  A
C477        C482   1.396   1_455  A
C477        H487   1.081       .  S
C478        C483   1.490   1_556  S
C478        C479   1.408   1_455  A
C479        C480   1.397       .  A
C479        H484   1.083       .  S
C480        C481   1.403       .  A
C480        H485   1.083       .  S
C481        C482   1.402       .  A
C482        H486   1.084       .  S
C483        C488   1.409       .  A
C483        C492   1.407       .  A
C488        C489   1.398       .  A
C488        H493   1.083   1_554  S
C489        C490   1.403       .  A
C489        H494   1.082       .  S
C490        C491   1.403       .  A
C491        C492   1.397       .  A
C491        H495   1.084       .  S
C492        H496   1.081   1_455  S
C497        C498   1.408       .  A
C497        C502   1.395       .  A
C497        H507   1.082       .  S
C498        C503   1.489       .  S
C498        C499   1.408       .  A
C499        C500   1.397       .  A
C499        H504   1.082       .  S
C500        C501   1.402       .  A
C500        H505   1.083       .  S
C501        C502   1.401       .  A
C502        H506   1.083       .  S
C503        C508   1.408       .  A
C503        C512   1.409       .  A
C508        C509   1.396       .  A
C508        H513   1.082       .  S
C509        C510   1.402       .  A
C509        H514   1.083       .  S
C510        C511   1.401       .  A
C511        C512   1.397       .  A
C511        H515   1.083       .  S
C512        H516   1.082       .  S
C517        C518   1.406       .  A
C517        C522   1.396       .  A
C517        H527   1.082       .  S
C518        C523   1.485       .  S
C518        C519   1.406       .  A
C519        C520   1.398       .  A
C519        H524   1.083       .  S
C520        C521   1.403       .  A
C520        H525   1.082       .  S
C521        C522   1.404       .  A
C522        H526   1.084       .  S
C523        C528   1.406       .  A
C523        C532   1.407       .  A
C528        C529   1.396       .  A
C528        H533   1.083       .  S
C529        C530   1.404       .  A
C529        H534   1.082       .  S
C530        C531   1.404       .  A
C531        C532   1.398       .  A
C531        H535   1.084       .  S
C532        H536   1.082       .  S
C537        C538   1.409   1_545  A
C537        C542   1.401       .  A
C537        H547   1.083       .  S
C538        C543   1.496       .  S
C538        C539   1.408       .  A
C539        C540   1.400       .  A
C539        H544   1.082       .  S
C540        C541   1.405   1_565  A
C540        H545   1.084       .  S
C541        C542   1.404       .  A
C542        H546   1.082       .  S
C543        C548   1.409   1_565  A
C543        C552   1.409       .  A
C548        C549   1.400       .  A
C548        H553   1.082       .  S
C549        C550   1.404   1_545  A
C549        H554   1.084       .  S
C550        C551   1.405       .  A
C551        C552   1.401       .  A
C551        H555   1.083       .  S
C552        H556   1.083       .  S
C557        C558   1.406       .  A
C557        C562   1.398       .  A
C557        H567   1.083       .  S
C558        C563   1.492       .  S
C558        C559   1.408       .  A
C559        C560   1.402       .  A
C559        H564   1.083       .  S
C560        C561   1.405       .  A
C560        H565   1.083       .  S
C561        C562   1.404       .  A
C562        H566   1.083       .  S
C563        C568   1.407       .  A
C563        C572   1.407       .  A
C568        C569   1.400       .  A
C568        H573   1.083       .  S
C569        C570   1.405       .  A
C569        H574   1.083       .  S
C570        C571   1.404       .  A
C571        C572   1.400       .  A
C571        H575   1.083       .  S
C572        H576   1.083       .  S
C577        C578   1.406       .  A
C577        C582   1.396       .  A
C577        H587   1.083       .  S
C578        C583   1.491       .  S
C578        C579   1.408       .  A
C579        C580   1.405       .  A
C579        H584   1.082       .  S
C580        C581   1.406       .  A
C580        H585   1.084       .  S
C581        C582   1.404       .  A
C582        H586   1.083       .  S
C583        C588   1.406       .  A
C583        C592   1.408       .  A
C588        C589   1.394       .  A
C588        H593   1.082       .  S
C589        C590   1.403       .  A
C589        H594   1.084       .  S
C590        C591   1.406       .  A
C591        C592   1.405       .  A
C591        H595   1.082       .  S
C592        H596   1.084       .  S
C597        C598   1.401       .  A
C597        C602   1.393       .  A
C597        H607   1.083       .  S
C598        C603   1.474       .  S
C598        C599   1.404       .  A
C599        C600   1.401       .  A
C599        H604   1.083       .  S
C600        C601   1.405       .  A
C600        H605   1.083       .  S
C601        C602   1.404       .  A
C602        H606   1.083   1_455  S
C603        C608   1.403       .  A
C603        C612   1.403       .  A
C608        C609   1.396       .  A
C608        H613   1.084       .  S
C609        C610   1.404       .  A
C609        H614   1.083       .  S
C610        C611   1.404       .  A
C611        C612   1.398       .  A
C611        H615   1.083       .  S
C612        H616   1.083       .  S
C617        C618   1.407       .  A
C617        C622   1.401       .  A
C617        H627   1.083       .  S
C618        C623   1.485       .  S
C618        C619   1.404       .  A
C619        C620   1.396       .  A
C619        H624   1.083       .  S
C620        C621   1.404       .  A
C620        H625   1.083       .  S
C621        C622   1.405       .  A
C622        H626   1.083       .  S
C623        C628   1.405       .  A
C623        C632   1.406       .  A
C628        C629   1.399       .  A
C628        H633   1.083       .  S
C629        C630   1.406       .  A
C629        H634   1.083       .  S
C630        C631   1.404       .  A
C631        C632   1.399       .  A
C631        H635   1.083       .  S
C632        H636   1.083       .  S
C637        C638   1.410       .  A
C637        C642   1.404       .  A
C637        H647   1.082       .  S
C638        C643   1.497       .  S
C638        C639   1.409       .  A
C639        C640   1.396       .  A
C639        H644   1.082       .  S
C640        C641   1.402       .  A
C640        H645   1.083       .  S
C641        C642   1.404       .  A
C642        H646   1.083       .  S
C643        C648   1.411       .  A
C643        C652   1.408       .  A
C648        C649   1.404       .  A
C648        H653   1.083       .  S
C649        C650   1.403       .  A
C649        H654   1.083       .  S
C650        C651   1.401       .  A
C651        C652   1.395       .  A
C651        H655   1.084       .  S
C652        H656   1.082       .  S
C657        C658   1.406       .  A
C657        C662   1.393       .  A
C657        H667   1.083       .  S
C658        C663   1.485       .  S
C658        C659   1.407       .  A
C659        C660   1.402       .  A
C659        H664   1.083       .  S
C660        C661   1.405       .  A
C660        H665   1.083       .  S
C661        C662   1.403       .  A
C662        H666   1.084       .  S
C663        C668   1.405       .  A
C663        C672   1.407       .  A
C668        C669   1.394       .  A
C668        H673   1.083       .  S
C669        C670   1.403       .  A
C669        H674   1.083       .  S
C670        C671   1.405       .  A
C671        C672   1.401       .  A
C671        H675   1.083       .  S
C672        H676   1.083       .  S
C677        C678   1.407   1_545  A
C677        C682   1.399       .  A
C677        H687   1.084       .  S
C678        C683   1.487   1_655  S
C678        C679   1.406   1_655  A
C679        C680   1.396   1_455  A
C679        H684   1.082       .  S
C680        C681   1.404   1_565  A
C680        H685   1.084   1_655  S
C681        C682   1.404       .  A
C682        H686   1.082       .  S
C683        C688   1.406       .  A
C683        C692   1.407   1_565  A
C688        C689   1.397       .  A
C688        H693   1.083       .  S
C689        C690   1.404       .  A
C689        H694   1.083       .  S
C690        C691   1.404   1_565  A
C691        C692   1.399       .  A
C691        H695   1.083       .  S
C692        H696   1.082       .  S
C697        C698   1.406       .  A
C697        C702   1.397       .  A
C697        H707   1.083       .  S
C698        C703   1.487       .  S
C698        C699   1.407       .  A
C699        C700   1.403       .  A
C699        H704   1.083       .  S
C700        C701   1.406       .  A
C700        H705   1.083       .  S
C701        C702   1.404       .  A
C702        H706   1.083   1_545  S
C703        C708   1.405       .  A
C703        C712   1.407       .  A
C708        C709   1.397       .  A
C708        H713   1.083       .  S
C709        C710   1.405       .  A
C709        H714   1.083       .  S
C710        C711   1.406       .  A
C711        C712   1.403       .  A
C711        H715   1.083       .  S
C712        H716   1.083       .  S
C717        C718   1.410       .  A
C717        C722   1.402       .  A
C717        H727   1.082       .  S
C718        C723   1.495       .  S
C718        C719   1.409       .  A
C719        C720   1.394       .  A
C719        H724   1.082       .  S
C720        C721   1.401       .  A
C720        H725   1.084       .  S
C721        C722   1.404       .  A
C722        H726   1.082   1_655  S
C723        C728   1.410       .  A
C723        C732   1.408       .  A
C728        C729   1.402       .  A
C728        H733   1.081       .  S
C729        C730   1.403       .  A
C729        H734   1.084       .  S
C730        C731   1.402       .  A
C731        C732   1.394       .  A
C731        H735   1.083       .  S
C732        H736   1.082       .  S
C737        C738   1.408       .  A
C737        C742   1.399       .  A
C737        H747   1.083       .  S
C738        C743   1.489       .  S
C738        C739   1.407       .  A
C739        C740   1.397       .  A
C739        H744   1.082       .  S
C740        C741   1.404       .  A
C740        H745   1.084       .  S
C741        C742   1.404       .  A
C742        H746   1.082       .  S
C743        C748   1.406       .  A
C743        C752   1.408       .  A
C748        C749   1.398       .  A
C748        H753   1.082       .  S
C749        C750   1.404       .  A
C749        H754   1.084       .  S
C750        C751   1.403       .  A
C751        C752   1.399       .  A
C751        H755   1.082       .  S
C752        H756   1.083       .  S
C757        C758   1.407       .  A
C757        C762   1.403       .  A
C757        H767   1.083       .  S
C758        C763   1.485       .  S
C758        C759   1.404       .  A
C759        C760   1.394       .  A
C759        H764   1.083       .  S
C760        C761   1.404       .  A
C760        H765   1.084       .  S
C761        C762   1.405       .  A
C762        H766   1.083       .  S
C763        C768   1.406       .  A
C763        C772   1.405       .  A
C768        C769   1.401       .  A
C768        H773   1.082       .  S
C769        C770   1.405       .  A
C769        H774   1.083       .  S
C770        C771   1.405       .  A
C771        C772   1.397       .  A
C771        H775   1.083       .  S
C772        H776   1.083       .  S
C777        C778   1.402       .  A
C777        C782   1.394       .  A
C777        H787   1.083       .  S
C778        C783   1.481       .  S
C778        C779   1.406       .  A
C779        C780   1.404       .  A
C779        H784   1.084       .  S
C780        C781   1.407       .  A
C780        H785   1.083       .  S
C781        C782   1.404       .  A
C782        H786   1.083       .  S
C783        C788   1.404       .  A
C783        C792   1.404       .  A
C788        C789   1.396       .  A
C788        H793   1.083       .  S
C789        C790   1.404       .  A
C789        H794   1.083       .  S
C790        C791   1.406       .  A
C791        C792   1.402       .  A
C791        H795   1.083       .  S
C792        H796   1.083       .  S
C797        C798   1.405       .  A
C797        C802   1.397       .  A
C797        H807   1.084       .  S
C798        C803   1.483       .  S
C798        C799   1.405       .  A
C799        C800   1.401       .  A
C799        H804   1.083       .  S
C800        C801   1.405       .  A
C800        H805   1.083       .  S
C801        C802   1.404       .  A
C802        H806   1.083       .  S
C803        C808   1.403       .  A
C803        C812   1.407       .  A
C808        C809   1.392       .  A
C808        H813   1.083       .  S
C809        C810   1.403       .  A
C809        H814   1.083       .  S
C810        C811   1.405       .  A
C811        C812   1.404       .  A
C811        H815   1.083       .  S
C812        H816   1.083       .  S
C817        C818   1.407       .  A
C817        C822   1.397       .  A
C817        H827   1.082       .  S
C818        C823   1.489       .  S
C818        C819   1.407       .  A
C819        C820   1.400       .  A
C819        H824   1.083       .  S
C820        C821   1.405       .  A
C820        H825   1.083       .  S
C821        C822   1.403       .  A
C822        H826   1.084       .  S
C823        C828   1.406       .  A
C823        C832   1.407       .  A
C828        C829   1.400       .  A
C828        H833   1.083       .  S
C829        C830   1.405       .  A
C829        H834   1.083       .  S
C830        C831   1.404       .  A
C831        C832   1.399       .  A
C831        H835   1.083       .  S
C832        H836   1.083       .  S
C837        C838   1.407       .  A
C837        C842   1.405       .  A
C837        H847   1.083       .  S
C838        C843   1.483       .  S
C838        C839   1.403       .  A
C839        C840   1.391       .  A
C839        H844   1.083       .  S
C840        C841   1.402       .  A
C840        H845   1.083       .  S
C841        C842   1.407       .  A
C842        H846   1.083       .  S
C843        C848   1.405       .  A
C843        C852   1.406       .  A
C848        C849   1.392       .  A
C848        H853   1.083       .  S
C849        C850   1.402       .  A
C849        H854   1.083       .  S
C850        C851   1.407       .  A
C851        C852   1.403       .  A
C851        H855   1.083       .  S
C852        H856   1.083       .  S
C857        C858   1.408       .  A
C857        C862   1.401       .  A
C857        H867   1.081       .  S
C858        C863   1.495   1_556  S
C858        C859   1.409       .  A
C859        C860   1.399       .  A
C859        H864   1.083   1_556  S
C860        C861   1.404       .  A
C860        H865   1.082       .  S
C861        C862   1.405       .  A
C862        H866   1.084       .  S
C863        C868   1.409       .  A
C863        C872   1.408       .  A
C868        C869   1.402       .  A
C868        H873   1.083       .  S
C869        C870   1.405       .  A
C869        H874   1.082       .  S
C870        C871   1.403       .  A
C871        C872   1.397       .  A
C871        H875   1.084       .  S
C872        H876   1.081       .  S
C877        C878   1.403       .  A
C877        C882   1.398       .  A
C877        H887   1.083       .  S
C878        C883   1.476       .  S
C878        C879   1.403       .  A
C879        C880   1.398       .  A
C879        H884   1.083       .  S
C880        C881   1.405       .  A
C880        H885   1.082       .  S
C881        C882   1.405       .  A
C882        H886   1.083       .  S
C883        C888   1.403       .  A
C883        C892   1.404       .  A
C888        C889   1.397       .  A
C888        H893   1.083       .  S
C889        C890   1.405       .  A
C889        H894   1.083       .  S
C890        C891   1.405       .  A
C891        C892   1.398       .  A
C891        H895   1.083       .  S
C892        H896   1.083       .  S
C897        C898   1.405       .  A
C897        C902   1.401       .  A
C897        H907   1.083       .  S
C898        C903   1.483       .  S
C898        C899   1.405       .  A
C899        C900   1.395       .  A
C899        H904   1.083       .  S
C900        C901   1.404       .  A
C900        H905   1.084       .  S
C901        C902   1.406       .  A
C902        H906   1.082       .  S
C903        C908   1.407       .  A
C903        C912   1.404       .  A
C908        C909   1.403       .  A
C908        H913   1.082       .  S
C909        C910   1.405       .  A
C909        H914   1.084       .  S
C910        C911   1.403       .  A
C911        C912   1.392       .  A
C911        H915   1.083       .  S
C912        H916   1.084       .  S
C917        C918   1.407       .  A
C917        C922   1.394       .  A
C917        H927   1.082       .  S
C918        C923   1.487       .  S
C918        C919   1.406       .  A
C919        C920   1.404       .  A
C919        H924   1.083       .  S
C920        C921   1.406       .  A
C920        H925   1.082       .  S
C921        C922   1.402       .  A
C922        H926   1.084       .  S
C923        C928   1.404       .  A
C923        C932   1.409       .  A
C928        C929   1.390       .  A
C928        H933   1.083       .  S
C929        C930   1.402       .  A
C929        H934   1.082       .  S
C930        C931   1.406       .  A
C931        C932   1.406       .  A
C931        H935   1.084       .  S
C932        H936   1.081       .  S
C937        C938   1.405       .  A
C937        C942   1.400       .  A
C937        H947   1.083       .  S
C938        C943   1.485       .  S
C938        C939   1.405       .  A
C939        C940   1.401       .  A
C939        H944   1.083       .  S
C940        C941   1.405       .  A
C940        H945   1.083       .  S
C941        C942   1.405       .  A
C942        H946   1.083       .  S
C943        C948   1.405       .  A
C943        C952   1.405       .  A
C948        C949   1.400       .  A
C948        H953   1.083       .  S
C949        C950   1.405       .  A
C949        H954   1.083       .  S
C950        C951   1.406       .  A
C951        C952   1.400       .  A
C951        H955   1.083       .  S
C952        H956   1.083       .  S
C957        C958   1.406       .  A
C957        C962   1.394       .  A
C957        H967   1.083       .  S
C958        C963   1.489       .  S
C958        C959   1.407       .  A
C959        C960   1.403       .  A
C959        H964   1.082       .  S
C960        C961   1.406       .  A
C960        H965   1.084       .  S
C961        C962   1.403       .  A
C962        H966   1.083       .  S
C963        C968   1.405       .  A
C963        C972   1.409       .  A
C968        C969   1.392       .  A
C968        H973   1.082       .  S
C969        C970   1.403       .  A
C969        H974   1.084       .  S
C970        C971   1.405       .  A
C971        C972   1.405       .  A
C971        H975   1.082       .  S
C972        H976   1.083       .  S
C977        C978   1.408       .  A
C977        C982   1.395       .  A
C977        H987   1.082       .  S
C978        C983   1.496       .  S
C978        C979   1.410       .  A
C979        C980   1.402       .  A
C979        H984   1.082       .  S
C980        C981   1.403       .  A
C980        H985   1.084       .  S
C981        C982   1.402       .  A
C982        H986   1.083       .  S
C983        C988   1.409       .  A
C983        C992   1.410       .  A
C988        C989   1.396       .  A
C988        H993   1.082       .  S
C989        C990   1.402       .  A
C989        H994   1.084       .  S
C990        C991   1.403       .  A
C991        C992   1.402       .  A
C991        H995   1.083       .  S
C992        H996   1.082       .  S
C997        C998   1.405       .  A
C997       C1002   1.398       .  A
C997       H1007   1.083       .  S
C998       C1003   1.484       .  S
C998        C999   1.405       .  A
C999       C1000   1.402       .  A
C999       H1004   1.083       .  S
C1000      C1001   1.406       .  A
C1000      H1005   1.083       .  S
C1001      C1002   1.404       .  A
C1002      H1006   1.083       .  S
C1003      C1008   1.405       .  A
C1003      C1012   1.405       .  A
C1008      C1009   1.398       .  A
C1008      H1013   1.083       .  S
C1009      C1010   1.404       .  A
C1009      H1014   1.084       .  S
C1010      C1011   1.405       .  A
C1011      C1012   1.400       .  A
C1011      H1015   1.083       .  S
C1012      H1016   1.084       .  S
C1017      C1018   1.406       .  A
C1017      C1022   1.403       .  A
C1017      H1027   1.082       .  S
C1018      C1023   1.483       .  S
C1018      C1019   1.404       .  A
C1019      C1020   1.394       .  A
C1019      H1024   1.083       .  S
C1020      C1021   1.404       .  A
C1020      H1025   1.083       .  S
C1021      C1022   1.406       .  A
C1022      H1026   1.083       .  S
C1023      C1028   1.406       .  A
C1023      C1032   1.404       .  A
C1028      C1029   1.403       .  A
C1028      H1033   1.083       .  S
C1029      C1030   1.405       .  A
C1029      H1034   1.083       .  S
C1030      C1031   1.404       .  A
C1031      C1032   1.394       .  A
C1031      H1035   1.083       .  S
C1032      H1036   1.083       .  S
C1037      C1038   1.408       .  A
C1037      C1042   1.400       .  A
C1037      H1047   1.082       .  S
C1038      C1043   1.490       .  S
C1038      C1039   1.406       .  A
C1039      C1040   1.398       .  A
C1039      H1044   1.083       .  S
C1040      C1041   1.404       .  A
C1040      H1045   1.082       .  S
C1041      C1042   1.404       .  A
C1042      H1046   1.084       .  S
C1043      C1048   1.407       .  A
C1043      C1052   1.407       .  A
C1048      C1049   1.401       .  A
C1048      H1053   1.084       .  S
C1049      C1050   1.404       .  A
C1049      H1054   1.082       .  S
C1050      C1051   1.405       .  A
C1051      C1052   1.398       .  A
C1051      H1055   1.084       .  S
C1052      H1056   1.082       .  S
C1057      C1058   1.405       .  A
C1057      C1062   1.402       .  A
C1057      H1067   1.083       .  S
C1058      C1063   1.481       .  S
C1058      C1059   1.404       .  A
C1059      C1060   1.396       .  A
C1059      H1064   1.083       .  S
C1060      C1061   1.404       .  A
C1060      H1065   1.084       .  S
C1061      C1062   1.404       .  A
C1062      H1066   1.083       .  S
C1063      C1068   1.405       .  A
C1063      C1072   1.404       .  A
C1068      C1069   1.401       .  A
C1068      H1073   1.083       .  S
C1069      C1070   1.405       .  A
C1069      H1074   1.084       .  S
C1070      C1071   1.404       .  A
C1071      C1072   1.397       .  A
C1071      H1075   1.083       .  S
C1072      H1076   1.083       .  S
C1077      C1078   1.406       .  A
C1077      C1082   1.400       .  A
C1077      H1087   1.083       .  S
C1078      C1083   1.487   1_556  S
C1078      C1079   1.406   1_565  A
C1079      C1080   1.399       .  A
C1079      H1084   1.083       .  S
C1080      C1081   1.405   1_545  A
C1080      H1085   1.084       .  S
C1081      C1082   1.404       .  A
C1082      H1086   1.083       .  S
C1083      C1088   1.407   1_565  A
C1083      C1092   1.405       .  A
C1088      C1089   1.401       .  A
C1088      H1093   1.084   1_554  S
C1089      C1090   1.406       .  A
C1089      H1094   1.082       .  S
C1090      C1091   1.404   1_545  A
C1091      C1092   1.398       .  A
C1091      H1095   1.084       .  S
C1092      H1096   1.082       .  S
C1097      C1098   1.404       .  A
C1097      C1102   1.402       .  A
C1097      H1107   1.083       .  S
C1098      C1103   1.479       .  S
C1098      C1099   1.403       .  A
C1099      C1100   1.395       .  A
C1099      H1104   1.083       .  S
C1100      C1101   1.404       .  A
C1100      H1105   1.084       .  S
C1101      C1102   1.406       .  A
C1102      H1106   1.083       .  S
C1103      C1108   1.404       .  A
C1103      C1112   1.403       .  A
C1108      C1109   1.402       .  A
C1108      H1113   1.083       .  S
C1109      C1110   1.406       .  A
C1109      H1114   1.083       .  S
C1110      C1111   1.404       .  A
C1111      C1112   1.396       .  A
C1111      H1115   1.083       .  S
C1112      H1116   1.084       .  S
C1117      C1118   1.405       .  A
C1117      C1122   1.398       .  A
C1117      H1127   1.084       .  S
C1118      C1123   1.486       .  S
C1118      C1119   1.406       .  A
C1119      C1120   1.401       .  A
C1119      H1124   1.083       .  S
C1120      C1121   1.405       .  A
C1120      H1125   1.083       .  S
C1121      C1122   1.405       .  A
C1122      H1126   1.083       .  S
C1123      C1128   1.405       .  A
C1123      C1132   1.406       .  A
C1128      C1129   1.396       .  A
C1128      H1133   1.083       .  S
C1129      C1130   1.405       .  A
C1129      H1134   1.084       .  S
C1130      C1131   1.405       .  A
C1131      C1132   1.401       .  A
C1131      H1135   1.083       .  S
C1132      H1136   1.083       .  S
C1137      C1138   1.407       .  A
C1137      C1142   1.398       .  A
C1137      H1147   1.084       .  S
C1138      C1143   1.485       .  S
C1138      C1139   1.405       .  A
C1139      C1140   1.397       .  A
C1139      H1144   1.082       .  S
C1140      C1141   1.405       .  A
C1140      H1145   1.084       .  S
C1141      C1142   1.403       .  A
C1142      H1146   1.082       .  S
C1143      C1148   1.407       .  A
C1143      C1152   1.405       .  A
C1148      C1149   1.399       .  A
C1148      H1153   1.084       .  S
C1149      C1150   1.404       .  A
C1149      H1154   1.083       .  S
C1150      C1151   1.403       .  A
C1151      C1152   1.396       .  A
C1151      H1155   1.084       .  S
C1152      H1156   1.082       .  S
C1157      C1158   1.403       .  A
C1157      C1162   1.396       .  A
C1157      H1167   1.083       .  S
C1158      C1163   1.477       .  S
C1158      C1159   1.404       .  A
C1159      C1160   1.398       .  A
C1159      H1164   1.084       .  S
C1160      C1161   1.405       .  A
C1160      H1165   1.083       .  S
C1161      C1162   1.404       .  A
C1162      H1166   1.083       .  S
C1163      C1168   1.404       .  A
C1163      C1172   1.404       .  A
C1168      C1169   1.398       .  A
C1168      H1173   1.084       .  S
C1169      C1170   1.404       .  A
C1169      H1174   1.082       .  S
C1170      C1171   1.404       .  A
C1171      C1172   1.397       .  A
C1171      H1175   1.084       .  S
C1172      H1176   1.083       .  S
C1177      C1178   1.409       .  A
C1177      C1182   1.400       .  A
C1177      H1187   1.083       .  S
C1178      C1183   1.492       .  S
C1178      C1179   1.407       .  A
C1179      C1180   1.397       .  A
C1179      H1184   1.082   1_655  S
C1180      C1181   1.403       .  A
C1180      H1185   1.083       .  S
C1181      C1182   1.404       .  A
C1182      H1186   1.083       .  S
C1183      C1188   1.409   1_655  A
C1183      C1192   1.407       .  A
C1188      C1189   1.400       .  A
C1188      H1193   1.083       .  S
C1189      C1190   1.404       .  A
C1189      H1194   1.083       .  S
C1190      C1191   1.403       .  A
C1191      C1192   1.397   1_455  A
C1191      H1195   1.084       .  S
C1192      H1196   1.082       .  S
C1197      C1198   1.406       .  A
C1197      C1202   1.402       .  A
C1197      H1207   1.083       .  S
C1198      C1203   1.484       .  S
C1198      C1199   1.405       .  A
C1199      C1200   1.396       .  A
C1199      H1204   1.083       .  S
C1200      C1201   1.404       .  A
C1200      H1205   1.083       .  S
C1201      C1202   1.405       .  A
C1202      H1206   1.083       .  S
C1203      C1208   1.407       .  A
C1203      C1212   1.403       .  A
C1208      C1209   1.405       .  A
C1208      H1213   1.083       .  S
C1209      C1210   1.406       .  A
C1209      H1214   1.083       .  S
C1210      C1211   1.405       .  A
C1211      C1212   1.395       .  A
C1211      H1215   1.083       .  S
C1212      H1216   1.083       .  S
C1217      C1218   1.404       .  A
C1217      C1222   1.394       .  A
C1217      H1227   1.083       .  S
C1218      C1223   1.480       .  S
C1218      C1219   1.405       .  A
C1219      C1220   1.399       .  A
C1219      H1224   1.083       .  S
C1220      C1221   1.404       .  A
C1220      H1225   1.083       .  S
C1221      C1222   1.404       .  A
C1222      H1226   1.084       .  S
C1223      C1228   1.406       .  A
C1223      C1232   1.403       .  A
C1228      C1229   1.400       .  A
C1228      H1233   1.083       .  S
C1229      C1230   1.404       .  A
C1229      H1234   1.083       .  S
C1230      C1231   1.403       .  A
C1231      C1232   1.392       .  A
C1231      H1235   1.083       .  S
C1232      H1236   1.083       .  S
C1237      C1238   1.405       .  A
C1237      C1242   1.395       .  A
C1237      H1247   1.084       .  S
C1238      C1243   1.485       .  S
C1238      C1239   1.406       .  A
C1239      C1240   1.403       .  A
C1239      H1244   1.083       .  S
C1240      C1241   1.406       .  A
C1240      H1245   1.083       .  S
C1241      C1242   1.404       .  A
C1242      H1246   1.083       .  S
C1243      C1248   1.404       .  A
C1243      C1252   1.406       .  A
C1248      C1249   1.394       .  A
C1248      H1253   1.083       .  S
C1249      C1250   1.404       .  A
C1249      H1254   1.084       .  S
C1250      C1251   1.406       .  A
C1251      C1252   1.404       .  A
C1251      H1255   1.083       .  S
C1252      H1256   1.083       .  S
C1257      C1258   1.405       .  A
C1257      C1262   1.394       .  A
C1257      H1267   1.083       .  S
C1258      C1263   1.486       .  S
C1258      C1259   1.407       .  A
C1259      C1260   1.402       .  A
C1259      H1264   1.083       .  S
C1260      C1261   1.404       .  A
C1260      H1265   1.084       .  S
C1261      C1262   1.403       .  A
C1262      H1266   1.083       .  S
C1263      C1268   1.407       .  A
C1263      C1272   1.406       .  A
C1268      C1269   1.396       .  A
C1268      H1273   1.083       .  S
C1269      C1270   1.403       .  A
C1269      H1274   1.083       .  S
C1270      C1271   1.405       .  A
C1271      C1272   1.401       .  A
C1271      H1275   1.083       .  S
C1272      H1276   1.083       .  S
C1277      C1278   1.405       .  A
C1277      C1282   1.394       .  A
C1277      H1287   1.083       .  S
C1278      C1283   1.489       .  S
C1278      C1279   1.408       .  A
C1279      C1280   1.404       .  A
C1279      H1284   1.082       .  S
C1280      C1281   1.406       .  A
C1280      H1285   1.083       .  S
C1281      C1282   1.403       .  A
C1282      H1286   1.083       .  S
C1283      C1288   1.405       .  A
C1283      C1292   1.408       .  A
C1288      C1289   1.394       .  A
C1288      H1293   1.083       .  S
C1289      C1290   1.404       .  A
C1289      H1294   1.083       .  S
C1290      C1291   1.406       .  A
C1291      C1292   1.405       .  A
C1291      H1295   1.083       .  S
C1292      H1296   1.083       .  S
C1297      C1298   1.409       .  A
C1297      C1302   1.402       .  A
C1297      H1307   1.083       .  S
C1298      C1303   1.493       .  S
C1298      C1299   1.407       .  A
C1299      C1300   1.399       .  A
C1299      H1304   1.083       .  S
C1300      C1301   1.404       .  A
C1300      H1305   1.083       .  S
C1301      C1302   1.405       .  A
C1302      H1306   1.083       .  S
C1303      C1308   1.407       .  A
C1303      C1312   1.408       .  A
C1308      C1309   1.399       .  A
C1308      H1313   1.082       .  S
C1309      C1310   1.404       .  A
C1309      H1314   1.083       .  S
C1310      C1311   1.405       .  A
C1311      C1312   1.401       .  A
C1311      H1315   1.083       .  S
C1312      H1316   1.083       .  S
C1317      C1318   1.408       .  A
C1317      C1322   1.393       .  A
C1317      H1327   1.082       .  S
C1318      C1323   1.492       .  S
C1318      C1319   1.409       .  A
C1319      C1320   1.402       .  A
C1319      H1324   1.082       .  S
C1320      C1321   1.404       .  A
C1320      H1325   1.084       .  S
C1321      C1322   1.400       .  A
C1322      H1326   1.083       .  S
C1323      C1328   1.407       .  A
C1323      C1332   1.410       .  A
C1328      C1329   1.392       .  A
C1328      H1333   1.082       .  S
C1329      C1330   1.402       .  A
C1329      H1334   1.084       .  S
C1330      C1331   1.404       .  A
C1331      C1332   1.403       .  A
C1331      H1335   1.082       .  S
C1332      H1336   1.083       .  S
C1337      C1338   1.406       .  A
C1337      C1342   1.396       .  A
C1337      H1347   1.083       .  S
C1338      C1343   1.487       .  S
C1338      C1339   1.407       .  A
C1339      C1340   1.401       .  A
C1339      H1344   1.082       .  S
C1340      C1341   1.405       .  A
C1340      H1345   1.083       .  S
C1341      C1342   1.403       .  A
C1342      H1346   1.083       .  S
C1343      C1348   1.405       .  A
C1343      C1352   1.408       .  A
C1348      C1349   1.393       .  A
C1348      H1353   1.083       .  S
C1349      C1350   1.404       .  A
C1349      H1354   1.084       .  S
C1350      C1351   1.405       .  A
C1351      C1352   1.403       .  A
C1351      H1355   1.083       .  S
C1352      H1356   1.083       .  S
C1357      C1358   1.407       .  A
C1357      C1362   1.395       .  A
C1357      H1367   1.082       .  S
C1358      C1363   1.494       .  S
C1358      C1359   1.410       .  A
C1359      C1360   1.404       .  A
C1359      H1364   1.082       .  S
C1360      C1361   1.405       .  A
C1360      H1365   1.083       .  S
C1361      C1362   1.402       .  A
C1362      H1366   1.083       .  S
C1363      C1368   1.408       .  A
C1363      C1372   1.410       .  A
C1368      C1369   1.396       .  A
C1368      H1373   1.082       .  S
C1369      C1370   1.402       .  A
C1369      H1374   1.083       .  S
C1370      C1371   1.403       .  A
C1371      C1372   1.403       .  A
C1371      H1375   1.083       .  S
C1372      H1376   1.082       .  S
C1377      C1378   1.403       .  A
C1377      C1382   1.394       .  A
C1377      H1387   1.083       .  S
C1378      C1383   1.485       .  S
C1378      C1379   1.407       .  A
C1379      C1380   1.405       .  A
C1379      H1384   1.084       .  S
C1380      C1381   1.407       .  A
C1380      H1385   1.083       .  S
C1381      C1382   1.404       .  A
C1382      H1386   1.084       .  S
C1383      C1388   1.405       .  A
C1383      C1392   1.406       .  A
C1388      C1389   1.396       .  A
C1388      H1393   1.084       .  S
C1389      C1390   1.404       .  A
C1389      H1394   1.083       .  S
C1390      C1391   1.406       .  A
C1391      C1392   1.403       .  A
C1391      H1395   1.083       .  S
C1392      H1396   1.083       .  S
C1397      C1398   1.408       .  A
C1397      C1402   1.401       .  A
C1397      H1407   1.083       .  S
C1398      C1403   1.497       .  S
C1398      C1399   1.409       .  A
C1399      C1400   1.402       .  A
C1399      H1404   1.081       .  S
C1400      C1401   1.404       .  A
C1400      H1405   1.084       .  S
C1401      C1402   1.405       .  A
C1402      H1406   1.082       .  S
C1403      C1408   1.409       .  A
C1403      C1412   1.409       .  A
C1408      C1409   1.401       .  A
C1408      H1413   1.081       .  S
C1409      C1410   1.405       .  A
C1409      H1414   1.084       .  S
C1410      C1411   1.404       .  A
C1411      C1412   1.401       .  A
C1411      H1415   1.082       .  S
C1412      H1416   1.083       .  S
C1417      C1418   1.403       .  A
C1417      C1422   1.395       .  A
C1417      H1427   1.083       .  S
C1418      C1423   1.485       .  S
C1418      C1419   1.407       .  A
C1419      C1420   1.405       .  A
C1419      H1424   1.083       .  S
C1420      C1421   1.406       .  A
C1420      H1425   1.083       .  S
C1421      C1422   1.404       .  A
C1422      H1426   1.084       .  S
C1423      C1428   1.405       .  A
C1423      C1432   1.405       .  A
C1428      C1429   1.398       .  A
C1428      H1433   1.083       .  S
C1429      C1430   1.405       .  A
C1429      H1434   1.083       .  S
C1430      C1431   1.407       .  A
C1431      C1432   1.403       .  A
C1431      H1435   1.083       .  S
C1432      H1436   1.083       .  S
C1437      C1438   1.407       .  A
C1437      C1442   1.405       .  A
C1437      H1447   1.083       .  S
C1438      C1443   1.484       .  S
C1438      C1439   1.403       .  A
C1439      C1440   1.394       .  A
C1439      H1444   1.084       .  S
C1440      C1441   1.405       .  A
C1440      H1445   1.083       .  S
C1441      C1442   1.406       .  A
C1442      H1446   1.083       .  S
C1443      C1448   1.405       .  A
C1443      C1452   1.405       .  A
C1448      C1449   1.403       .  A
C1448      H1453   1.083       .  S
C1449      C1450   1.407       .  A
C1449      H1454   1.082       .  S
C1450      C1451   1.404       .  A
C1451      C1452   1.396       .  A
C1451      H1455   1.083       .  S
C1452      H1456   1.083       .  S
C1457      C1458   1.402       .  A
C1457      C1462   1.394       .  A
C1457      H1467   1.083       .  S
C1458      C1463   1.478       .  S
C1458      C1459   1.405       .  A
C1459      C1460   1.400       .  A
C1459      H1464   1.084       .  S
C1460      C1461   1.405       .  A
C1460      H1465   1.083       .  S
C1461      C1462   1.404       .  A
C1462      H1466   1.084       .  S
C1463      C1468   1.406       .  A
C1463      C1472   1.402       .  A
C1468      C1469   1.400       .  A
C1468      H1473   1.084       .  S
C1469      C1470   1.404       .  A
C1469      H1474   1.082       .  S
C1470      C1471   1.405       .  A
C1471      C1472   1.396       .  A
C1471      H1475   1.083       .  S
C1472      H1476   1.083       .  S
C1477      C1478   1.409       .  A
C1477      C1482   1.398       .  A
C1477      H1487   1.082       .  S
C1478      C1483   1.496       .  S
C1478      C1479   1.409       .  A
C1479      C1480   1.400       .  A
C1479      H1484   1.081       .  S
C1480      C1481   1.403       .  A
C1480      H1485   1.083       .  S
C1481      C1482   1.403       .  A
C1482      H1486   1.083       .  S
C1483      C1488   1.408       .  A
C1483      C1492   1.410       .  A
C1488      C1489   1.397       .  A
C1488      H1493   1.081       .  S
C1489      C1490   1.403       .  A
C1489      H1494   1.083       .  S
C1490      C1491   1.404       .  A
C1491      C1492   1.402       .  A
C1491      H1495   1.083       .  S
C1492      H1496   1.083       .  S
C1497      C1498   1.408       .  A
C1497      C1502   1.400       .  A
C1497      H1507   1.083       .  S
C1498      C1503   1.488       .  S
C1498      C1499   1.405       .  A
C1499      C1500   1.400       .  A
C1499      H1504   1.083       .  S
C1500      C1501   1.405       .  A
C1500      H1505   1.084       .  S
C1501      C1502   1.404       .  A
C1502      H1506   1.083       .  S
C1503      C1508   1.404       .  A
C1503      C1512   1.409       .  A
C1508      C1509   1.395       .  A
C1508      H1513   1.083       .  S
C1509      C1510   1.404       .  A
C1509      H1514   1.083       .  S
C1510      C1511   1.405       .  A
C1511      C1512   1.404       .  A
C1511      H1515   1.083       .  S
C1512      H1516   1.083       .  S
C1517      C1518   1.409       .  A
C1517      C1522   1.406       .  A
C1517      H1527   1.082       .  S
C1518      C1523   1.494       .  S
C1518      C1519   1.407       .  A
C1519      C1520   1.395       .  A
C1519      H1524   1.083       .  S
C1520      C1521   1.403       .  A
C1520      H1525   1.083       .  S
C1521      C1522   1.406       .  A
C1522      H1526   1.083       .  S
C1523      C1528   1.409       .  A
C1523      C1532   1.407       .  A
C1528      C1529   1.406       .  A
C1528      H1533   1.083       .  S
C1529      C1530   1.406   1_655  A
C1529      H1534   1.083       .  S
C1530      C1531   1.403   1_455  A
C1531      C1532   1.395       .  A
C1531      H1535   1.083   1_655  S
C1532      H1536   1.082       .  S
C1537      C1538   1.409       .  A
C1537      C1542   1.398       .  A
C1537      H1547   1.082       .  S
C1538      C1543   1.493       .  S
C1538      C1539   1.409       .  A
C1539      C1540   1.398       .  A
C1539      H1544   1.082       .  S
C1540      C1541   1.402       .  A
C1540      H1545   1.083       .  S
C1541      C1542   1.402       .  A
C1542      H1546   1.083       .  S
C1543      C1548   1.409       .  A
C1543      C1552   1.409       .  A
C1548      C1549   1.397       .  A
C1548      H1553   1.082       .  S
C1549      C1550   1.402       .  A
C1549      H1554   1.083       .  S
C1550      C1551   1.402       .  A
C1551      C1552   1.398       .  A
C1551      H1555   1.083       .  S
C1552      H1556   1.082       .  S
C1557      C1558   1.404       .  A
C1557      C1562   1.395       .  A
C1557      H1567   1.083       .  S
C1558      C1563   1.485       .  S
C1558      C1559   1.407       .  A
C1559      C1560   1.402       .  A
C1559      H1564   1.083       .  S
C1560      C1561   1.405       .  A
C1560      H1565   1.083       .  S
C1561      C1562   1.403       .  A
C1562      H1566   1.083       .  S
C1563      C1568   1.406       .  A
C1563      C1572   1.406       .  A
C1568      C1569   1.395       .  A
C1568      H1573   1.083       .  S
C1569      C1570   1.403       .  A
C1569      H1574   1.084       .  S
C1570      C1571   1.405       .  A
C1571      C1572   1.401       .  A
C1571      H1575   1.083       .  S
C1572      H1576   1.083       .  S
C1577      C1578   1.406       .  A
C1577      C1582   1.400       .  A
C1577      H1587   1.083       .  S
C1578      C1583   1.483       .  S
C1578      C1579   1.405       .  A
C1579      C1580   1.394       .  A
C1579      H1584   1.083       .  S
C1580      C1581   1.403       .  A
C1580      H1585   1.083       .  S
C1581      C1582   1.404       .  A
C1582      H1586   1.083       .  S
C1583      C1588   1.405       .  A
C1583      C1592   1.406       .  A
C1588      C1589   1.395       .  A
C1588      H1593   1.083       .  S
C1589      C1590   1.403       .  A
C1589      H1594   1.083       .  S
C1590      C1591   1.405       .  A
C1591      C1592   1.400       .  A
C1591      H1595   1.083       .  S
C1592      H1596   1.083       .  S
C1597      C1598   1.408   1_545  A
C1597      C1602   1.399       .  A
C1597      H1607   1.083   1_556  S
C1598      C1603   1.492   1_556  S
C1598      C1599   1.408       .  A
C1599      C1600   1.399       .  A
C1599      H1604   1.082   1_455  S
C1600      C1601   1.405   1_565  A
C1600      H1605   1.084       .  S
C1601      C1602   1.403       .  A
C1602      H1606   1.082       .  S
C1603      C1608   1.407       .  A
C1603      C1612   1.409   1_455  A
C1608      C1609   1.397       .  A
C1608      H1613   1.082       .  S
C1609      C1610   1.403   1_455  A
C1609      H1614   1.084       .  S
C1610      C1611   1.402       .  A
C1611      C1612   1.400       .  A
C1611      H1615   1.082       .  S
C1612      H1616   1.083       .  S
C1617      C1618   1.405       .  A
C1617      C1622   1.402       .  A
C1617      H1627   1.083       .  S
C1618      C1623   1.484       .  S
C1618      C1619   1.405       .  A
C1619      C1620   1.397       .  A
C1619      H1624   1.083       .  S
C1620      C1621   1.404       .  A
C1620      H1625   1.083       .  S
C1621      C1622   1.406       .  A
C1622      H1626   1.083       .  S
C1623      C1628   1.404       .  A
C1623      C1632   1.406       .  A
C1628      C1629   1.395       .  A
C1628      H1633   1.083       .  S
C1629      C1630   1.404       .  A
C1629      H1634   1.083       .  S
C1630      C1631   1.405       .  A
C1631      C1632   1.402       .  A
C1631      H1635   1.083       .  S
C1632      H1636   1.083       .  S
C1637      C1638   1.407       .  A
C1637      C1642   1.403       .  A
C1637      H1647   1.083       .  S
C1638      C1643   1.484       .  S
C1638      C1639   1.404       .  A
C1639      C1640   1.392       .  A
C1639      H1644   1.083       .  S
C1640      C1641   1.403       .  A
C1640      H1645   1.084       .  S
C1641      C1642   1.406       .  A
C1642      H1646   1.083       .  S
C1643      C1648   1.406       .  A
C1643      C1652   1.405       .  A
C1648      C1649   1.401       .  A
C1648      H1653   1.083       .  S
C1649      C1650   1.405       .  A
C1649      H1654   1.083       .  S
C1650      C1651   1.404       .  A
C1651      C1652   1.394       .  A
C1651      H1655   1.083       .  S
C1652      H1656   1.083       .  S
C1657      C1658   1.408       .  A
C1657      C1662   1.398       .  A
C1657      H1667   1.083       .  S
C1658      C1663   1.490       .  S
C1658      C1659   1.407       .  A
C1659      C1660   1.398       .  A
C1659      H1664   1.082       .  S
C1660      C1661   1.405       .  A
C1660      H1665   1.084       .  S
C1661      C1662   1.403       .  A
C1662      H1666   1.082       .  S
C1663      C1668   1.408       .  A
C1663      C1672   1.407       .  A
C1668      C1669   1.398       .  A
C1668      H1673   1.082       .  S
C1669      C1670   1.403       .  A
C1669      H1674   1.084       .  S
C1670      C1671   1.404       .  A
C1671      C1672   1.398       .  A
C1671      H1675   1.082       .  S
C1672      H1676   1.083       .  S
C1677      C1678   1.406       .  A
C1677      C1682   1.396       .  A
C1677      H1687   1.083       .  S
C1678      C1683   1.488       .  S
C1678      C1679   1.407       .  A
C1679      C1680   1.400       .  A
C1679      H1684   1.083       .  S
C1680      C1681   1.404       .  A
C1680      H1685   1.084       .  S
C1681      C1682   1.403       .  A
C1682      H1686   1.083       .  S
C1683      C1688   1.406       .  A
C1683      C1692   1.408       .  A
C1688      C1689   1.395       .  A
C1688      H1693   1.082       .  S
C1689      C1690   1.403       .  A
C1689      H1694   1.083       .  S
C1690      C1691   1.406       .  A
C1691      C1692   1.402       .  A
C1691      H1695   1.083       .  S
C1692      H1696   1.083       .  S
