geometry optimzed in LAMMPS
_audit_creation_date              2020-12-01 
_audit_creation_method            'lammps2cif' 
_symmetry_space_group_name_H-M    'P1' 
_symmetry_Int_Tables_number       1 
_symmetry_cell_setting            triclinic 
loop_ 
_symmetry_equiv_pos_as_xyz 
  x,y,z 
_cell_length_a                    56.20347392 
_cell_length_b                    56.22563798843419 
_cell_length_c                    53.296603310590925 
_cell_angle_alpha                 90.42329941366067 
_cell_angle_beta                  89.58655095863331 
_cell_angle_gamma                 119.61619598215259 
loop_ 
_atom_site_label 
_atom_site_type_symbol 
_atom_site_fract_x 
_atom_site_fract_y 
_atom_site_fract_z 
_atom_site_charge 
O1          O  0.75894108  0.89287016  0.43982107    -0.71100
O2          O  0.72502723  0.93456235  0.42160429    -0.71300
O3          O  0.76235766  0.93952856  0.45581570    -0.71200
O4          O  0.72190171  0.88775754  0.40517490    -0.71200
O5          O  0.68835842  0.86567769  0.43136468    -0.71200
O6          O  0.73012632  0.91652324  0.48299750    -0.71200
O7          O  0.69341220  0.91290049  0.44965315    -0.71100
O8          O  0.72514120  0.86906645  0.46536486    -0.71300
V9          V  0.74138116  0.91319949  0.43108450     1.35200
V10         V  0.70987613  0.89137446  0.45679356     1.35200
C11         C  0.74772015  0.87395659  0.45580797     0.78100
C12         C  0.70387555  0.93131027  0.43318031     0.78200
C13         C  0.75320392  0.93695701  0.47791771     0.78100
C14         C  0.69812874  0.86814307  0.40942443     0.78000
O15         O  0.57893470  0.09946922  0.41283297    -0.71100
O16         O  0.61836167  0.06272486  0.43056215    -0.71300
O17         O  0.62475955  0.10071787  0.39635684    -0.71200
O18         O  0.57254912  0.06211481  0.44729984    -0.71200
O19         O  0.55005757  0.02817133  0.42160133    -0.71200
O20         O  0.59972510  0.06956052  0.36902617    -0.71200
O21         O  0.59638595  0.03231831  0.40166287    -0.71100
O22         O  0.55292724  0.06517222  0.38862317    -0.71300
V23         V  0.59824337  0.08061910  0.42128243     1.35200
V24         V  0.57520652  0.04942989  0.39573463     1.35200
C25         C  0.55863699  0.08798328  0.39821396     0.78100
C26         C  0.61454915  0.04165714  0.41841911     0.78200
C27         C  0.62105824  0.09199080  0.37402707     0.78100
C28         C  0.55241069  0.03861937  0.44322702     0.78000
O29         O  0.07582387  0.20210262  0.93817958    -0.71100
O30         O  0.03362572  0.23534477  0.91874530    -0.71300
O31         O  0.07979121  0.23705336  0.90189083    -0.71200
O32         O  0.02943525  0.19989573  0.95472501    -0.71200
O33         O  0.05307026  0.23393716  0.98004007    -0.71200
O34         O  0.10344221  0.27148161  0.92678360    -0.71200
O35         O  0.05708053  0.26883422  0.94464316    -0.71100
O36         O  0.10004984  0.23697221  0.96248305    -0.71300
V37         V  0.05511857  0.21924275  0.92886972     1.35200
V38         V  0.07797536  0.25209654  0.95299771     1.35200
C39         C  0.09555537  0.21438807  0.95328415     0.78100
C40         C  0.03793786  0.25755489  0.92894272     0.78200
C41         C  0.10021373  0.26055179  0.90529192     0.78100
C42         C  0.03231575  0.21069346  0.97617055     0.78000
O43         O  0.88179930  0.39532854  0.90813182    -0.71100
O44         O  0.91523183  0.35244602  0.92437597    -0.71300
O45         O  0.91994740  0.39974782  0.94121657    -0.71200
O46         O  0.87662624  0.34808933  0.89172925    -0.71200
O47         O  0.90771049  0.37063287  0.86346683    -0.71200
O48         O  0.95258436  0.42080616  0.91393607    -0.71200
O49         O  0.94548565  0.37313207  0.89502755    -0.71100
O50         O  0.91475631  0.41845108  0.88161862    -0.71300
V51         V  0.89904702  0.37432425  0.91587157     1.35200
V52         V  0.92954987  0.39541710  0.88910793     1.35200
C53         C  0.89260256  0.41401197  0.89183595     0.78100
C54         C  0.93576870  0.35521257  0.91197171     0.78200
C55         C  0.94374799  0.41882777  0.93618120     0.78100
C56         C  0.88455720  0.35074063  0.86919278     0.78000
O57         O  0.20061539  0.06243208  0.58179006    -0.71100
O58         O  0.23452677  0.02040044  0.59918403    -0.71300
O59         O  0.24085464  0.06923227  0.61307535    -0.71200
O60         O  0.19398227  0.01331678  0.56831207    -0.71200
O61         O  0.22132076  0.03496331  0.53729869    -0.71200
O62         O  0.27250643  0.08598567  0.58436636    -0.71200
O63         O  0.26061068  0.03639349  0.56623191    -0.71100
O64         O  0.23354920  0.08487920  0.55506452    -0.71300
V65         V  0.21800510  0.04169612  0.59006594     1.35200
V66         V  0.24645772  0.06022660  0.56126862     1.35200
C67         C  0.21216888  0.08158231  0.56601310     0.78100
C68         C  0.25271313  0.02060564  0.58488110     0.78200
C69         C  0.26489542  0.08674174  0.60665901     0.78100
C70         C  0.19937761  0.01467761  0.54514241     0.78000
O71         O  0.39596251  0.87120746  0.60420527    -0.71100
O72         O  0.35084136  0.90131422  0.58582597    -0.71300
O73         O  0.39783728  0.90573060  0.56822506    -0.71200
O74         O  0.34906451  0.86651039  0.62123429    -0.71200
O75         O  0.37237549  0.90028840  0.64693157    -0.71200
O76         O  0.41973333  0.94090621  0.59278577    -0.71200
O77         O  0.37269676  0.93440168  0.61256959    -0.71100
O78         O  0.41987981  0.90672087  0.62795254    -0.71300
V79         V  0.37391173  0.88688816  0.59529374     1.35200
V80         V  0.39584841  0.91993342  0.61951038     1.35200
C81         C  0.41538106  0.88385598  0.61951109     0.78100
C82         C  0.35367907  0.92256906  0.59686991     0.78200
C83         C  0.41677786  0.93010773  0.57124809     0.78100
C84         C  0.35229929  0.87662322  0.64300595     0.78000
O85         O  0.42531636  0.23570113  0.77309916    -0.71100
O86         O  0.40428073  0.28547119  0.74580675    -0.71300
O87         O  0.43739334  0.28769672  0.78313621    -0.71200
O88         O  0.39265146  0.23389943  0.73538608    -0.71200
O89         O  0.35872930  0.21754083  0.76186122    -0.71200
O90         O  0.40258062  0.27403644  0.80838995    -0.71200
O91         O  0.36930326  0.26885783  0.77116909    -0.71100
O92         O  0.39208677  0.22245011  0.80012011    -0.71300
V93         V  0.41428160  0.26037187  0.75983924     1.35200
V94         V  0.38134036  0.24586765  0.78484415     1.35200
C95         C  0.41244290  0.22105702  0.79179335     0.78100
C96         C  0.38321461  0.28560669  0.75425319     0.78200
C97         C  0.42737663  0.29077664  0.80339886     0.78100
C98         C  0.36809403  0.21658616  0.74040746     0.78000
O99         O  0.22623576  0.41922974  0.73138878    -0.71100
O100        O  0.27653161  0.39434235  0.74623221    -0.71300
O101        O  0.27571751  0.43065046  0.71433084    -0.71200
O102        O  0.22724258  0.38303635  0.76391129    -0.71200
O103        O  0.20750935  0.35058039  0.73624834    -0.71200
O104        O  0.25686272  0.39846220  0.68626324    -0.71200
O105        O  0.25704406  0.36240438  0.71803178    -0.71100
O106        O  0.20659417  0.38655141  0.70385893    -0.71300
V107        V  0.25094436  0.40615493  0.73844869     1.35200
V108        V  0.23226961  0.37515207  0.71162674     1.35200
C109        C  0.20790740  0.40705529  0.71499827     0.78100
C110        C  0.27563494  0.37446337  0.73412510     0.78200
C111        C  0.27529899  0.42243477  0.69215521     0.78100
C112        C  0.20947244  0.35864949  0.75879080     0.78000
O113        O  0.72748895  0.52681322  0.25425199    -0.71100
O114        O  0.69000708  0.56395921  0.23238854    -0.71300
O115        O  0.73802933  0.56679845  0.22090156    -0.71200
O116        O  0.67928250  0.52423985  0.26510209    -0.71200
O117        O  0.70066986  0.55242008  0.29572642    -0.71200
O118        O  0.75610463  0.59880641  0.24919365    -0.71200
O119        O  0.70696509  0.59165197  0.26421260    -0.71100
O120        O  0.74968765  0.55938772  0.28139229    -0.71300
V121        V  0.70918431  0.54597147  0.24369553     1.35200
V122        V  0.72812989  0.57505597  0.27201426     1.35200
C123        C  0.74509555  0.53707707  0.27153360     0.78100
C124        C  0.69103261  0.58320160  0.24564455     0.78200
C125        C  0.75654160  0.59049858  0.22711273     0.78100
C126        C  0.67970246  0.53124177  0.28773011     0.78000
O127        O  0.54564652  0.73107204  0.23404835    -0.71100
O128        O  0.57586650  0.68530666  0.24981693    -0.71300
O129        O  0.58185600  0.73290866  0.26804087    -0.71200
O130        O  0.53943080  0.68371310  0.21650438    -0.71200
O131        O  0.57176583  0.70656911  0.18936710    -0.71200
O132        O  0.61580331  0.75414201  0.24206318    -0.71200
O133        O  0.60744420  0.70640076  0.22160467    -0.71100
O134        O  0.58019643  0.75462423  0.20919222    -0.71300
V135        V  0.56139112  0.70871400  0.24165874     1.35200
V136        V  0.59318585  0.73008629  0.21610918     1.35200
C137        C  0.55804601  0.75075873  0.21895636     0.78100
C138        C  0.59614250  0.68742067  0.23743527     0.78200
C139        C  0.60603233  0.75185160  0.26398443     0.78100
C140        C  0.54828798  0.68663261  0.19427416     0.78000
O141        O  0.10048613  0.56730978  0.10330910    -0.71100
O142        O  0.07375260  0.61350830  0.07875476    -0.71300
O143        O  0.10986587  0.61808135  0.11428184    -0.71200
O144        O  0.06499684  0.56302705  0.06774412    -0.71200
O145        O  0.03279976  0.54432014  0.09580738    -0.71200
O146        O  0.07583612  0.60312623  0.14061902    -0.71200
O147        O  0.03952247  0.59442561  0.10484803    -0.71100
O148        O  0.06916064  0.55306250  0.13237518    -0.71300
V149        V  0.08665062  0.59017984  0.09150526     1.35200
V150        V  0.05494852  0.57394720  0.11785766     1.35200
C151        C  0.08960828  0.55292182  0.12261850     0.78100
C152        C  0.05195044  0.61160806  0.08775556     0.78200
C153        C  0.10029005  0.62046005  0.13507594     0.78100
C154        C  0.04150732  0.54407143  0.07387730     0.78000
O155        O  0.90578991  0.75810438  0.06729016    -0.71100
O156        O  0.95147099  0.72728886  0.08075919    -0.71300
O157        O  0.95417275  0.76631283  0.05031913    -0.71200
O158        O  0.90284276  0.71904060  0.09831343    -0.71200
O159        O  0.88134925  0.68884055  0.06915411    -0.71200
O160        O  0.93478201  0.73529683  0.02132020    -0.71200
O161        O  0.92998090  0.69621479  0.05225883    -0.71100
O162        O  0.88619553  0.72825977  0.03738168    -0.71300
V163        V  0.92809767  0.74202725  0.07366108     1.35200
V164        V  0.90831729  0.71268269  0.04566382     1.35200
C165        C  0.88895253  0.74892419  0.04935855     0.78100
C166        C  0.94885844  0.70685952  0.06831888     0.78200
C167        C  0.95374750  0.75866987  0.02790872     0.78100
C168        C  0.88324887  0.69597782  0.09198902     0.78000
O169        O  0.46730481  0.87566832  0.10000421    -0.71100
O170        O  0.54334123  0.90993588  0.08262775    -0.71300
O171        O  0.50997374  0.87045329  0.11489135    -0.71200
O172        O  0.50039616  0.91473980  0.06723814    -0.71200
O173        O  0.51233352  0.94701422  0.09509552    -0.71200
O174        O  0.51705299  0.90043654  0.14408897    -0.71200
O175        O  0.55228232  0.93884493  0.11323784    -0.71100
O176        O  0.47652442  0.90863725  0.12652304    -0.71300
V177        V  0.50539899  0.89328190  0.09170072     1.35200
V178        V  0.51425907  0.92310060  0.11918703     1.35200
C179        C  0.45906901  0.88674140  0.11604107     0.78100
C180        C  0.56079228  0.92984388  0.09562854     0.78200
C181        C  0.51526704  0.87793902  0.13750960     0.78100
C182        C  0.50541267  0.93865841  0.07278568     0.78000
O183        O  0.85359012  0.07405647  0.07668144    -0.71100
O184        O  0.77786221  0.03111992  0.09415953    -0.71300
O185        O  0.81143086  0.02737021  0.06002441    -0.71200
O186        O  0.82050707  0.07765131  0.11131271    -0.71200
O187        O  0.80784487  0.09943606  0.08604068    -0.71200
O188        O  0.80379492  0.05146110  0.03288474    -0.71200
O189        O  0.76806905  0.05231423  0.06562432    -0.71100
O190        O  0.84373170  0.09910953  0.05277461    -0.71300
V191        V  0.81562993  0.05300648  0.08507020     1.35200
V192        V  0.80607420  0.07519974  0.05983237     1.35200
C193        C  0.86149567  0.09419910  0.06198614     0.78100
C194        C  0.76003800  0.03390478  0.08210706     0.78200
C195        C  0.80637284  0.03081752  0.03775193     0.78100
C196        C  0.81558158  0.09691511  0.10765649     0.78000
O197        O  0.79257828  0.24119914  0.27341757    -0.71100
O198        O  0.86735639  0.29116183  0.25681738    -0.71300
O199        O  0.82783672  0.24384119  0.23747847    -0.71200
O200        O  0.83141228  0.28836260  0.29217859    -0.71200
O201        O  0.84239943  0.26486134  0.31706885    -0.71200
O202        O  0.84332499  0.22306814  0.26090503    -0.71200
O203        O  0.87995923  0.27031019  0.28326698    -0.71100
O204        O  0.80575088  0.21733202  0.29528356    -0.71300
V205        V  0.83007676  0.26571483  0.26538034     1.35200
V206        V  0.84260120  0.24427762  0.28862989     1.35200
C207        C  0.78657579  0.22074325  0.28723293     0.78100
C208        C  0.88638983  0.28953922  0.26790011     0.78200
C209        C  0.83512771  0.22605927  0.23970916     0.78100
C210        C  0.83701304  0.28396827  0.31391622     0.78000
O211        O  0.17787965  0.42692027  0.24511454    -0.71100
O212        O  0.10333404  0.39760331  0.26616726    -0.71300
O213        O  0.14567141  0.39128896  0.28046496    -0.71200
O214        O  0.13570910  0.43345054  0.23182303    -0.71200
O215        O  0.12717044  0.40253558  0.20327549    -0.71200
O216        O  0.12948170  0.35637528  0.25514836    -0.71200
O217        O  0.09108178  0.36733372  0.23631918    -0.71100
O218        O  0.16568751  0.39126947  0.22127051    -0.71300
V219        V  0.14047803  0.41163678  0.25540784     1.35200
V220        V  0.12861135  0.37988481  0.22950314     1.35200
C221        C  0.18442223  0.41377763  0.22976052     0.78100
C222        C  0.08441836  0.37836066  0.25367493     0.78200
C223        C  0.13853313  0.36651501  0.27669669     0.78100
C224        C  0.12990415  0.42562704  0.20938020     0.78000
O225        O  0.12648295  0.20059478  0.44118234    -0.71100
O226        O  0.20283260  0.23681582  0.42586882    -0.71300
O227        O  0.16996982  0.19976329  0.45988555    -0.71200
O228        O  0.15853386  0.23705947  0.40666498    -0.71200
O229        O  0.16647781  0.27087069  0.43165775    -0.71200
O230        O  0.17621894  0.23239225  0.48580223    -0.71200
O231        O  0.20935268  0.26910025  0.45225768    -0.71100
O232        O  0.13334012  0.23455440  0.46560162    -0.71300
V233        V  0.16465700  0.21926789  0.43384696     1.35200
V234        V  0.17120433  0.25109792  0.45832813     1.35200
C235        C  0.11706163  0.21171599  0.45586496     0.78100
C236        C  0.21916397  0.25884332  0.43707353     0.78200
C237        C  0.17483985  0.20951895  0.48182221     0.78100
C238        C  0.16019431  0.26007294  0.41002463     0.78000
O239        O  0.50972955  0.40942274  0.40515651    -0.71100
O240        O  0.43694131  0.36317953  0.42949080    -0.71300
O241        O  0.46922991  0.35849576  0.39453186    -0.71200
O242        O  0.47770815  0.41394593  0.44028623    -0.71200
O243        O  0.46449558  0.43236134  0.41185032    -0.71200
O244        O  0.45029350  0.37298026  0.36778431    -0.71200
O245        O  0.42195508  0.38203884  0.40312887    -0.71100
O246        O  0.49305465  0.42354671  0.37588546    -0.71300
V247        V  0.47309903  0.38658537  0.41687945     1.35200
V248        V  0.45784943  0.40249451  0.39018224     1.35200
C249        C  0.51357903  0.42404769  0.38596401     0.78100
C250        C  0.41713344  0.36488244  0.42025134     0.78200
C251        C  0.45738622  0.35563920  0.37378032     0.78100
C252        C  0.47310584  0.43286702  0.43384019     0.78000
O253        O  0.45591532  0.57581780  0.60470522    -0.71100
O254        O  0.53110652  0.62203490  0.58639939    -0.71300
O255        O  0.48985058  0.57447045  0.56916575    -0.71200
O256        O  0.49686310  0.62348289  0.62147161    -0.71200
O257        O  0.50674487  0.60036609  0.64785492    -0.71200
O258        O  0.50429990  0.55410082  0.59428447    -0.71200
O259        O  0.54267397  0.60166701  0.61431092    -0.71100
O260        O  0.46790585  0.55212319  0.62820825    -0.71300
V261        V  0.49363217  0.59853327  0.59591183     1.35200
V262        V  0.50509257  0.57742246  0.62065658     1.35200
C263        C  0.44919673  0.55579502  0.61932296     0.78100
C264        C  0.54970868  0.61998984  0.59785511     0.78200
C265        C  0.49647689  0.55632095  0.57265393     0.78100
C266        C  0.50301563  0.62036042  0.64347311     0.78000
O267        O  0.84154267  0.75279224  0.57619648    -0.71100
O268        O  0.76663027  0.72449169  0.59549702    -0.71300
O269        O  0.80818152  0.71734846  0.61151766    -0.71200
O270        O  0.80051902  0.76008160  0.56114561    -0.71200
O271        O  0.79086248  0.72782843  0.53367720    -0.71200
O272        O  0.79284437  0.68269240  0.58593066    -0.71200
O273        O  0.75462896  0.69329486  0.56653388    -0.71100
O274        O  0.82938646  0.71728559  0.55214999    -0.71300
V275        V  0.80398982  0.73797087  0.58567757     1.35200
V276        V  0.79222563  0.70584376  0.56013861     1.35200
C277        C  0.84807782  0.73982234  0.56065111     0.78100
C278        C  0.74782544  0.70488148  0.58321759     0.78200
C279        C  0.80134583  0.69261179  0.60759143     0.78100
C280        C  0.79463069  0.75144948  0.53888739     0.78000
O281        O  0.79441696  0.53727471  0.77355974    -0.71100
O282        O  0.86941126  0.56645180  0.75488093    -0.71300
O283        O  0.83539735  0.52873777  0.78785926    -0.71200
O284        O  0.82803166  0.57444268  0.74037526    -0.71200
O285        O  0.84127443  0.60703110  0.76806736    -0.71200
O286        O  0.84636936  0.55993404  0.81666911    -0.71200
O287        O  0.88099404  0.59700377  0.78443044    -0.71100
O288        O  0.80640010  0.57003750  0.80096509    -0.71300
V289        V  0.83206437  0.55236603  0.76471290     1.35200
V290        V  0.84348043  0.58290788  0.79196963     1.35200
C291        C  0.78777032  0.54905609  0.79023747     0.78100
C292        C  0.88796644  0.58625017  0.76711631     0.78200
C293        C  0.84242938  0.53652106  0.81021849     0.78100
C294        C  0.83318930  0.59837306  0.74599735     0.78000
O295        O  0.17924621  0.72898575  0.74224097    -0.71100
O296        O  0.10463338  0.68459920  0.76251189    -0.71300
O297        O  0.13739622  0.68039053  0.72785566    -0.71200
O298        O  0.14685742  0.73323626  0.77732613    -0.71200
O299        O  0.13172468  0.75219642  0.75131035    -0.71200
O300        O  0.12744115  0.70225692  0.70016378    -0.71200
O301        O  0.09255139  0.70331249  0.73338536    -0.71100
O302        O  0.16696570  0.75164098  0.71764094    -0.71300
V303        V  0.14180098  0.70720473  0.75200871     1.35200
V304        V  0.12996619  0.72701558  0.72614666     1.35200
C305        C  0.18574735  0.74837736  0.72694148     0.78100
C306        C  0.08585035  0.68571571  0.75048397     0.78200
C307        C  0.13064202  0.68213634  0.70567307     0.78100
C308        C  0.14080620  0.75165316  0.77286287     0.78000
O309        O  0.51986198  0.10597780  0.91073501    -0.71100
O310        O  0.44489259  0.07073964  0.93126539    -0.71300
O311        O  0.48886174  0.06606301  0.94327301    -0.71200
O312        O  0.47569569  0.11078017  0.89934598    -0.71200
O313        O  0.47112670  0.08376648  0.86814893    -0.71200
O314        O  0.47328619  0.03365437  0.91525843    -0.71200
O315        O  0.43453233  0.04480243  0.89811232    -0.71100
O316        O  0.50980304  0.07228961  0.88483631    -0.71300
V317        V  0.48222803  0.08789799  0.92064323     1.35200
V318        V  0.47239360  0.05911682  0.89209911     1.35200
C319        C  0.52759467  0.09424730  0.89492354     0.78100
C320        C  0.42685550  0.05275813  0.91713966     0.78200
C321        C  0.48252558  0.04190732  0.93715752     0.78100
C322        C  0.47125659  0.10507851  0.87629101     0.78000
O323        O  0.13603992  0.90327276  0.93997990    -0.71100
O324        O  0.21029822  0.94987019  0.92059151    -0.71300
O325        O  0.16959407  0.90086081  0.90493871    -0.71200
O326        O  0.17629519  0.95194749  0.95535116    -0.71200
O327        O  0.18807128  0.93099919  0.98246122    -0.71200
O328        O  0.18428527  0.88158635  0.93105889    -0.71200
O329        O  0.22297964  0.93065260  0.94872569    -0.71100
O330        O  0.14892146  0.88167073  0.96531007    -0.71300
V331        V  0.17330889  0.92605503  0.93067663     1.35200
V332        V  0.18576695  0.90653827  0.95632493     1.35200
C333        C  0.12996798  0.88461590  0.95595509     0.78100
C334        C  0.22930052  0.94876772  0.93217243     0.78200
C335        C  0.17590917  0.88260183  0.90930976     0.78100
C336        C  0.18335972  0.95025683  0.97744061     0.78000
O337        O  0.57020327  0.46935420  0.90095904    -0.71100
O338        O  0.61460577  0.54319503  0.92326213    -0.71300
O339        O  0.56535079  0.50135666  0.93617268    -0.71200
O340        O  0.61928209  0.51059002  0.88861692    -0.71200
O341        O  0.59879477  0.52107907  0.85992700    -0.71200
O342        O  0.54817751  0.51827146  0.91007836    -0.71200
O343        O  0.59805416  0.55654413  0.89320743    -0.71100
O344        O  0.54858866  0.48269362  0.87614818    -0.71300
V345        V  0.59197884  0.50640747  0.91177150     1.35200
V346        V  0.57368898  0.51938395  0.88536474     1.35200
C347        C  0.55164211  0.46355819  0.88487616     0.78100
C348        C  0.61449465  0.56249595  0.91124431     0.78200
C349        C  0.54789250  0.50864749  0.93160330     0.78100
C350        C  0.61801360  0.51667400  0.86611610     0.78000
O351        O  0.77076958  0.85388839  0.93552914    -0.71100
O352        O  0.73619934  0.77804809  0.91835952    -0.71300
O353        O  0.73046401  0.82072620  0.90405096    -0.71200
O354        O  0.77670163  0.81142803  0.94945547    -0.71200
O355        O  0.74793240  0.80410846  0.97984247    -0.71200
O356        O  0.69945006  0.80926064  0.93311190    -0.71200
O357        O  0.70814801  0.76892851  0.94973852    -0.71100
O358        O  0.73932770  0.84469645  0.96378421    -0.71300
V359        V  0.75293446  0.81585566  0.92739314     1.35200
V360        V  0.72426652  0.80699301  0.95602472     1.35200
C361        C  0.76072446  0.86206856  0.95258416     0.78100
C362        C  0.71678124  0.76053224  0.93171398     0.78200
C363        C  0.70693299  0.81615061  0.91059947     0.78100
C364        C  0.77030850  0.80620308  0.97232578     0.78000
O365        O  0.73621490  0.18056683  0.76697472    -0.71100
O366        O  0.69304374  0.10477402  0.75116651    -0.71300
O367        O  0.68973264  0.13899886  0.78471741    -0.71200
O368        O  0.73983170  0.14678518  0.73309569    -0.71200
O369        O  0.76289159  0.13680095  0.75942465    -0.71200
O370        O  0.71298847  0.12966803  0.81144666    -0.71200
O371        O  0.71594438  0.09562005  0.77842363    -0.71100
O372        O  0.76004327  0.17095667  0.79279914    -0.71300
V373        V  0.71517806  0.14257071  0.75944178     1.35200
V374        V  0.73756578  0.13348740  0.78496676     1.35200
C375        C  0.75550630  0.18848464  0.78257747     0.78100
C376        C  0.69661997  0.08728271  0.76285288     0.78200
C377        C  0.69269231  0.13281238  0.80675690     0.78100
C378        C  0.76002060  0.14338698  0.73746696     0.78000
O379        O  0.53927865  0.79644277  0.74574943    -0.71100
O380        O  0.57116946  0.87127999  0.76539941    -0.71300
O381        O  0.53314192  0.83864176  0.73191379    -0.71200
O382        O  0.57719951  0.82882331  0.77966531    -0.71200
O383        O  0.61003401  0.84213223  0.75220748    -0.71200
O384        O  0.56399071  0.84770234  0.70310186    -0.71200
O385        O  0.60118199  0.88215973  0.73541100    -0.71100
O386        O  0.57275244  0.80729055  0.71936152    -0.71300
V387        V  0.55582738  0.83398742  0.75517636     1.35200
V388        V  0.58640495  0.84454796  0.72809010     1.35200
C389        C  0.55073740  0.78926168  0.72921605     0.78100
C390        C  0.59112028  0.88945765  0.75307457     0.78200
C391        C  0.54090076  0.84466613  0.70940718     0.78100
C392        C  0.60134024  0.83438955  0.77430485     0.78000
O393        O  0.89787805  0.12009416  0.56609595    -0.71100
O394        O  0.94096158  0.19643046  0.58018485    -0.71300
O395        O  0.89427667  0.15548468  0.59815003    -0.71200
O396        O  0.94481598  0.16084546  0.54849523    -0.71200
O397        O  0.92178651  0.16810303  0.51988459    -0.71200
O398        O  0.87258868  0.16606160  0.57079039    -0.71200
O399        O  0.91994399  0.20502594  0.55055258    -0.71100
O400        O  0.87387669  0.12884048  0.53975181    -0.71300
V401        V  0.91905084  0.15838773  0.57266123     1.35200
V402        V  0.89742203  0.16676949  0.54574648     1.35200
C403        C  0.87824958  0.11154764  0.55075524     0.78100
C404        C  0.93785224  0.21367775  0.56755006     0.78200
C405        C  0.87521557  0.16039660  0.59320718     0.78100
C406        C  0.94201035  0.16526793  0.52584581     0.78000
O407        O  0.09063337  0.50415820  0.60154995    -0.71100
O408        O  0.05568491  0.42953772  0.57982735    -0.71300
O409        O  0.05518381  0.47467128  0.56487507    -0.71200
O410        O  0.09150627  0.45915734  0.61602765    -0.71200
O411        O  0.05822277  0.45045861  0.64206549    -0.71200
O412        O  0.02043889  0.46358537  0.58969739    -0.71200
O413        O  0.02290222  0.41991665  0.60667977    -0.71100
O414        O  0.05568986  0.49458864  0.62566108    -0.71300
V415        V  0.07259265  0.46674059  0.59104540     1.35200
V416        V  0.03997776  0.45743026  0.61551968     1.35200
C417        C  0.07893840  0.51193932  0.61734117     0.78100
C418        C  0.03362153  0.41194321  0.59015467     0.78200
C419        C  0.03143436  0.47113302  0.56828187     0.78100
C420        C  0.08106314  0.45198754  0.63757278     0.78000
O421        O  0.86241414  0.45797201  0.41001510    -0.71100
O422        O  0.89935734  0.53466437  0.42243886    -0.71300
O423        O  0.86061315  0.50040442  0.39036680    -0.71200
O424        O  0.90068613  0.49158904  0.44230161    -0.71200
O425        O  0.93336140  0.49882285  0.41607781    -0.71200
O426        O  0.89133665  0.50465091  0.36302157    -0.71200
O427        O  0.92995034  0.54018664  0.39443464    -0.71100
O428        O  0.89536556  0.46366456  0.38472044    -0.71300
V429        V  0.88144738  0.49636887  0.41577288     1.35200
V430        V  0.91192393  0.50177458  0.39005392     1.35200
C431        C  0.87304350  0.44789575  0.39554898     0.78100
C432        C  0.92074962  0.55049173  0.41022286     0.78200
C433        C  0.86857446  0.50321651  0.36784483     0.78100
C434        C  0.92361787  0.49338262  0.43810680     0.78000
O435        O  0.06853143  0.84089124  0.43721656    -0.71100
O436        O  0.02054940  0.76775220  0.41465201    -0.71300
O437        O  0.01903826  0.80023764  0.45124425    -0.71200
O438        O  0.06988515  0.80860446  0.40002722    -0.71200
O439        O  0.09189874  0.79700490  0.42605310    -0.71200
O440        O  0.03581737  0.78103207  0.47512574    -0.71200
O441        O  0.04305768  0.75369329  0.43748896    -0.71100
O442        O  0.08483073  0.82452352  0.46483491    -0.71300
V443        V  0.04493219  0.80412159  0.42617365     1.35200
V444        V  0.06369330  0.78947676  0.45036885     1.35200
C445        C  0.08370916  0.84468682  0.45599028     0.78100
C446        C  0.02389733  0.74837085  0.42242019     0.78200
C447        C  0.01795589  0.78815618  0.47147110     0.78100
C448        C  0.08974572  0.80463534  0.40423619     0.78000
O449        O  0.43030985  0.17612549  0.28184247    -0.71100
O450        O  0.40462039  0.10150664  0.26342348    -0.71300
O451        O  0.39631195  0.14179911  0.24648698    -0.71200
O452        O  0.43904695  0.13633404  0.29828531    -0.71200
O453        O  0.40549570  0.12453272  0.32473152    -0.71200
O454        O  0.36132662  0.12736027  0.27158979    -0.71200
O455        O  0.37172810  0.08893132  0.29072757    -0.71100
O456        O  0.39481171  0.16312033  0.30611697    -0.71300
V457        V  0.41685867  0.13867752  0.27297117     1.35200
V458        V  0.38398507  0.12626777  0.29779185     1.35200
C459        C  0.41672981  0.18220773  0.29706245     0.78100
C460        C  0.38412293  0.08248308  0.27457563     0.78200
C461        C  0.37163130  0.13547033  0.24996745     0.78100
C462        C  0.42973686  0.12955950  0.32026833     0.78000
O463        O  0.24587798  0.79223125  0.23911515    -0.71100
O464        O  0.29226585  0.86573308  0.26142552    -0.71300
O465        O  0.24422714  0.82361465  0.27715070    -0.71200
O466        O  0.29367003  0.83382217  0.22398874    -0.71200
O467        O  0.27165757  0.84685436  0.19936360    -0.71200
O468        O  0.22335900  0.83887756  0.25362786    -0.71200
O469        O  0.27159730  0.87948434  0.23588990    -0.71100
O470        O  0.22316386  0.80619736  0.21651000    -0.71300
V471        V  0.26856542  0.82913065  0.25001082     1.35200
V472        V  0.24780267  0.84253572  0.22684968     1.35200
C473        C  0.22665349  0.78686522  0.22391229     0.78100
C474        C  0.29018794  0.88515428  0.25178805     0.78200
C475        C  0.22545342  0.82959034  0.27461029     0.78100
C476        C  0.29113600  0.84198617  0.20268666     0.78000
O477        O  0.20843054  0.12293205  0.08183561    -0.71100
O478        O  0.23853981  0.19830351  0.09998993    -0.71300
O479        O  0.20572161  0.16554480  0.06333675    -0.71200
O480        O  0.24108710  0.15518086  0.11920132    -0.71200
O481        O  0.27751003  0.16731656  0.09648710    -0.71200
O482        O  0.24086069  0.17462962  0.03966530    -0.71200
O483        O  0.27306420  0.20850697  0.07512354    -0.71100
O484        O  0.24531339  0.13323898  0.06041296    -0.71300
V485        V  0.22417121  0.16069384  0.09073089     1.35200
V486        V  0.25851523  0.17066303  0.06844534     1.35200
C487        C  0.22183235  0.11540810  0.06787021     0.78100
C488        C  0.26043662  0.21628678  0.08970103     0.78200
C489        C  0.21722485  0.17185769  0.04209963     0.78100
C490        C  0.26535683  0.15954498  0.11743407     0.78000
O491        O  0.39687032  0.50926031  0.10257560    -0.71100
O492        O  0.35383884  0.43329823  0.08547275    -0.71300
O493        O  0.35036592  0.46674474  0.12006768    -0.71200
O494        O  0.40043206  0.47648220  0.06754237    -0.71200
O495        O  0.42290326  0.46457398  0.09272268    -0.71200
O496        O  0.37481434  0.45853643  0.14633349    -0.71200
O497        O  0.37640803  0.42403864  0.11297479    -0.71100
O498        O  0.42198752  0.49945898  0.12648064    -0.71300
V499        V  0.37581486  0.47123668  0.09436340     1.35200
V500        V  0.39861360  0.46191796  0.11911414     1.35200
C501        C  0.41722786  0.51718663  0.11701229     0.78100
C502        C  0.35727420  0.41567579  0.09720942     0.78200
C503        C  0.35384593  0.46071827  0.14201057     0.78100
C504        C  0.42025003  0.47228363  0.07116107     0.78000
C505        C  0.29439324  0.29211368  0.10814560     0.16600
C506        C  0.30953079  0.31764760  0.11990272    -0.32400
C507        C  0.31822909  0.34114743  0.10518948     0.21000
C508        C  0.31154981  0.33950402  0.08001181     0.03200
C509        C  0.29655394  0.31390276  0.06815891    -0.22100
C510        C  0.28850558  0.29033474  0.08274752     0.12400
S511        S  0.28310418  0.26119966  0.12253035    -0.05800
C512        C  0.27106874  0.24571997  0.09390216    -0.09300
C513        C  0.27534284  0.26369532  0.07442386    -0.25900
S514        S  0.32411330  0.37071723  0.06565590    -0.03100
C515        C  0.33927894  0.38594661  0.09369983    -0.16500
C516        C  0.33427665  0.36763552  0.11302648    -0.14500
H517        H  0.31481895  0.31914313  0.13956479     0.20800
H518        H  0.29186076  0.31241603  0.04835321     0.16900
H519        H  0.26962828  0.25756596  0.05509840     0.19400
H520        H  0.34217756  0.37345988  0.13189125     0.12700
C521        C  0.29222088  0.14475846  0.17847107     0.16600
C522        C  0.29609908  0.13768079  0.20278615    -0.32400
C523        C  0.32132162  0.13920361  0.20808283     0.21000
C524        C  0.34158897  0.14730544  0.18988216     0.03200
C525        C  0.33768643  0.15426843  0.16568326    -0.22100
C526        C  0.31265000  0.15287419  0.16044659     0.12400
S527        S  0.26328602  0.14440449  0.16806411    -0.05800
C528        C  0.27898875  0.15529337  0.13917348    -0.09300
C529        C  0.30523045  0.15896654  0.13796834    -0.25900
S530        S  0.37087732  0.14845064  0.19977689    -0.03100
C531        C  0.35602966  0.13807806  0.22896506    -0.16500
C532        C  0.32947329  0.13375314  0.23065620    -0.14500
H533        H  0.28023538  0.13141049  0.21695772     0.20800
H534        H  0.35360498  0.16067671  0.15154366     0.16900
H535        H  0.31817540  0.16557232  0.12142074     0.19400
H536        H  0.31703588  0.12744022  0.24751973     0.12700
C537        C  0.35995087  0.00862467  0.25260172     0.16600
C538        C  0.35166020  0.98435451  0.23891271    -0.32400
C539        C  0.33571862  0.95940065  0.25142080     0.21000
C540        C  0.32909600  0.95859310  0.27664161     0.03200
C541        C  0.33730203  0.98281222  0.29026052    -0.22100
C542        C  0.35243375  0.00770274  0.27756472     0.12400
S543        S  0.37817326  0.04108549  0.24070715    -0.05800
C544        C  0.37466740  0.05335331  0.26942430    -0.09300
C545        C  0.36062856  0.03322962  0.28720487    -0.25900
S546        S  0.30891918  0.92634704  0.28823023    -0.03100
C547        C  0.30867098  0.91385335  0.25863914    -0.16500
C548        C  0.32378772  0.93371592  0.24093474    -0.14500
H549        H  0.35672731  0.98489030  0.21918671     0.20800
H550        H  0.33142426  0.98227250  0.30975743     0.16900
H551        H  0.35631385  0.03709716  0.30618899     0.19400
H552        H  0.32517513  0.92957920  0.22124337     0.12700
C553        C  0.18159348  0.81563441  0.33463965     0.16600
C554        C  0.17000013  0.80881287  0.35882615    -0.32400
C555        C  0.14620512  0.81046635  0.36360588     0.21000
C556        C  0.13452242  0.81848653  0.34503353     0.03200
C557        C  0.14610197  0.82530698  0.32091615    -0.22100
C558        C  0.16988828  0.82374833  0.31617320     0.12400
S559        S  0.21027724  0.81481281  0.32495735    -0.05800
C560        C  0.20652221  0.82556690  0.29571140    -0.09300
C561        C  0.18410849  0.82954257  0.29385844    -0.25900
S562        S  0.10579615  0.81925039  0.35435500    -0.03100
C563        C  0.10943693  0.80884071  0.38376612    -0.16500
C564        C  0.13186317  0.80485043  0.38592777    -0.14500
H565        H  0.17914226  0.80250269  0.37328528     0.20800
H566        H  0.13694514  0.83159309  0.30644670     0.16900
H567        H  0.17837947  0.83611991  0.27701034     0.19400
H568        H  0.13739855  0.79826577  0.40288082     0.12700
C569        C  0.94972910  0.62652393  0.42585529     0.16600
C570        C  0.95554246  0.65198485  0.43575316    -0.32400
C571        C  0.97567471  0.67548263  0.42362067     0.21000
C572        C  0.98949239  0.67376275  0.40262245     0.03200
C573        C  0.98380884  0.64832227  0.39284689    -0.22100
C574        C  0.96368571  0.62485164  0.40495384     0.12400
S575        S  0.92564175  0.59555888  0.43745929    -0.05800
C576        C  0.93452671  0.58027480  0.41388536    -0.09300
C577        C  0.95520160  0.59836837  0.39813153    -0.25900
S578        S  0.01426987  0.70461297  0.39147120    -0.03100
C579        C  0.00577388  0.71994025  0.41520000    -0.16500
C580        C  0.98502186  0.70201651  0.43095242    -0.14500
H581        H  0.94491193  0.65342427  0.45224559     0.20800
H582        H  0.99475975  0.64687740  0.37660550     0.16900
H583        H  0.96326620  0.59245034  0.38221708     0.19400
H584        H  0.97823129  0.70806441  0.44768517     0.12700
C585        C  0.00167061  0.48183516  0.50795336     0.16600
C586        C  0.99672165  0.48675551  0.48334940    -0.32400
C587        C  0.97173328  0.48566217  0.47859076     0.21000
C588        C  0.95242812  0.47960969  0.49743383     0.03200
C589        C  0.95722688  0.47434095  0.52193721    -0.22100
C590        C  0.98232507  0.47575794  0.52675835     0.12400
S591        S  0.03097718  0.48293129  0.51768914    -0.05800
C592        C  0.01698548  0.47510504  0.54739010    -0.09300
C593        C  0.99098519  0.47181787  0.54947926    -0.25900
S594        S  0.92376438  0.48004400  0.48816191    -0.03100
C595        C  0.93802078  0.48876751  0.45863220    -0.16500
C596        C  0.96348601  0.49079169  0.45613783    -0.14500
H597        H  0.01183971  0.49161410  0.46866002     0.20800
H598        H  0.94221484  0.46973692  0.53667956     0.16900
H599        H  0.97905371  0.46673428  0.56664112     0.19400
H600        H  0.97542383  0.49607048  0.43897384     0.12700
C601        C  0.97385247  0.28794998  0.59058089     0.16600
C602        C  0.98323065  0.31214765  0.60449654    -0.32400
C603        C  0.99708238  0.33700005  0.59156139     0.21000
C604        C  0.00193856  0.33788489  0.56594423     0.03200
C605        C  0.99196047  0.31361052  0.55188180    -0.22100
C606        C  0.97760740  0.28867612  0.56478241     0.12400
S607        S  0.95680611  0.25577969  0.60293395    -0.05800
C608        C  0.95390542  0.24310207  0.57297648    -0.09300
C609        C  0.96574832  0.26288366  0.55449580    -0.25900
S610        S  0.02043076  0.37034033  0.55413871    -0.03100
C611        C  0.02077716  0.38265112  0.58391559    -0.16500
C612        C  0.00745358  0.36257423  0.60185443    -0.14500
H613        H  0.97986069  0.31163050  0.62458159     0.20800
H614        H  0.99523045  0.31412819  0.53178487     0.16900
H615        H  0.96562196  0.25857383  0.53463352     0.19400
H616        H  0.00580165  0.36654436  0.62153928     0.12700
C617        C  0.82228375  0.15930308  0.63985037     0.16600
C618        C  0.79989541  0.15901977  0.65188938    -0.32400
C619        C  0.79726271  0.15462505  0.67789491     0.21000
C620        C  0.81622858  0.15102830  0.69142152     0.03200
C621        C  0.83879157  0.15164907  0.67944230    -0.22100
C622        C  0.84119244  0.15564473  0.65339884     0.12400
S623        S  0.82863005  0.16324482  0.60827210    -0.05800
C624        C  0.85690093  0.15965630  0.61341258    -0.09300
C625        C  0.86109419  0.15586429  0.63833919    -0.25900
S626        S  0.80884259  0.14505972  0.72267645    -0.03100
C627        C  0.77973562  0.14717432  0.71742051    -0.16500
C628        C  0.77636198  0.15259414  0.69275240    -0.14500
H629        H  0.78491684  0.16161050  0.64139115     0.20800
H630        H  0.85354013  0.14862545  0.68987664     0.16900
H631        H  0.87776123  0.15320387  0.64508313     0.19400
H632        H  0.75927135  0.15450655  0.68596696     0.12700
C633        C  0.64674092  0.01231481  0.74639623     0.16600
C634        C  0.62906309  0.98728136  0.73484448    -0.32400
C635        C  0.62094350  0.96337814  0.74875337     0.21000
C636        C  0.62925063  0.96428072  0.77336598     0.03200
C637        C  0.64696631  0.98930469  0.78488837    -0.22100
C638        C  0.65580517  0.01313586  0.77069336     0.12400
S639        S  0.65972544  0.04366100  0.73250557    -0.05800
C640        C  0.67823424  0.05781121  0.75943383    -0.09300
C641        C  0.67407170  0.03916549  0.77816145    -0.25900
S642        S  0.61781086  0.93289967  0.78673136    -0.03100
C643        C  0.60254136  0.91857063  0.75858290    -0.16500
C644        C  0.60575454  0.93712773  0.74012963    -0.14500
H645        H  0.62248975  0.98641996  0.71562096     0.20800
H646        H  0.65416583  0.99012206  0.80386588     0.16900
H647        H  0.68380157  0.04444950  0.79640252     0.19400
H648        H  0.59818544  0.93163712  0.72111222     0.12700
C649        C  0.65291658  0.81836610  0.86805231     0.16600
C650        C  0.62933047  0.81639648  0.85714667    -0.32400
C651        C  0.63087098  0.82394680  0.83184168     0.21000
C652        C  0.65480611  0.83311803  0.81803857     0.03200
C653        C  0.67834436  0.83513906  0.82894155    -0.22100
C654        C  0.67678084  0.82751067  0.85415572     0.12400
S655        S  0.65538638  0.80990639  0.89836826    -0.05800
C656        C  0.68888304  0.81867432  0.89212117    -0.09300
C657        C  0.69741400  0.82773235  0.86783242    -0.25900
S658        S  0.65255701  0.84126182  0.78764518    -0.03100
C659        C  0.61896140  0.83222438  0.79348862    -0.16500
C660        C  0.61020970  0.82340460  0.81783494    -0.14500
H661        H  0.61060158  0.80920634  0.86785870     0.20800
H662        H  0.69704848  0.84224307  0.81820479     0.16900
H663        H  0.71766685  0.83399909  0.86048034     0.19400
H664        H  0.58983508  0.81701127  0.82492481     0.12700
C665        C  0.65599598  0.63635430  0.93522396     0.16600
C666        C  0.66641473  0.66089684  0.94887266    -0.32400
C667        C  0.68094335  0.68552339  0.93558384     0.21000
C668        C  0.68565332  0.68577305  0.90998247     0.03200
C669        C  0.67507102  0.66126555  0.89632042    -0.22100
C670        C  0.65985338  0.63668713  0.90946718     0.12400
S671        S  0.63667962  0.60426676  0.94754989    -0.05800
C672        C  0.63300192  0.59137680  0.91755168    -0.09300
C673        C  0.64647483  0.61095810  0.89922995    -0.25900
S674        S  0.70395868  0.71779526  0.89737816    -0.03100
C675        C  0.70444406  0.73098924  0.92673965    -0.16500
C676        C  0.69147222  0.71143447  0.94524455    -0.14500
H677        H  0.66284855  0.66082089  0.96889559     0.20800
H678        H  0.67807248  0.66136263  0.87619835     0.16900
H679        H  0.64599270  0.60657462  0.87934173     0.19400
H680        H  0.68976573  0.71597879  0.96475633     0.12700
C681        C  0.49248007  0.50412191  0.97768114     0.16600
C682        C  0.47085242  0.50507281  0.99020899    -0.32400
C683        C  0.46279279  0.49231417  0.01378930     0.21000
C684        C  0.47587983  0.47948776  0.02449002     0.03200
C685        C  0.49746209  0.47862825  0.01204678    -0.22100
C686        C  0.50534009  0.49113958  0.98848909     0.12400
S687        S  0.50511377  0.51762776  0.94863172    -0.05800
C688        C  0.52781615  0.50549191  0.95119373    -0.09300
C689        C  0.52558353  0.49195567  0.97349599    -0.25900
S690        S  0.46342570  0.46543786  0.05323287    -0.03100
C691        C  0.44004460  0.47665313  0.05090336    -0.16500
C692        C  0.44206650  0.49064896  0.02886420    -0.14500
H693        H  0.46063959  0.51510657  0.98188471     0.20800
H694        H  0.50761057  0.46850303  0.02032751     0.16900
H695        H  0.53797557  0.48284444  0.97840305     0.19400
H696        H  0.42926641  0.49938452  0.02426181     0.12700
C697        C  0.18774534  0.04600163  0.03453616     0.16600
C698        C  0.17338432  0.02476865  0.01725499    -0.32400
C699        C  0.18233088  0.00571453  0.01344641     0.21000
C700        C  0.20391453  0.00700585  0.02699632     0.03200
C701        C  0.21833608  0.02829820  0.04427752    -0.22100
C702        C  0.21009428  0.04803281  0.04732037     0.12400
S703        S  0.18157917  0.07246521  0.04006600    -0.05800
C704        C  0.20997979  0.08697473  0.05904670    -0.09300
C705        C  0.22315286  0.07173989  0.06121413    -0.25900
S706        S  0.21205469  0.98232407  0.01900177    -0.03100
C707        C  0.18690843  0.97094218  0.99644371    -0.16500
C708        C  0.17265877  0.98521934  0.99577401    -0.14500
H709        H  0.15662661  0.02377493  0.00648788     0.20800
H710        H  0.23589835  0.03001398  0.05417666     0.16900
H711        H  0.24188124  0.07821130  0.07160736     0.19400
H712        H  0.15661251  0.98133068  0.98249096     0.12700
C713        C  0.59953866  0.12911494  0.86698304     0.16600
C714        C  0.62261503  0.14514381  0.85209681    -0.32400
C715        C  0.63941054  0.13413217  0.84547649     0.21000
C716        C  0.63421894  0.10881343  0.85419974     0.03200
C717        C  0.61113125  0.09276709  0.86905658    -0.22100
C718        C  0.59369430  0.10328184  0.87475698     0.12400
S719        S  0.57510998  0.13759569  0.87487997    -0.05800
C720        C  0.55639060  0.10559880  0.88781126    -0.09300
C721        C  0.56879924  0.08959883  0.88652973    -0.25900
S722        S  0.65650932  0.09867936  0.84332342    -0.03100
C723        C  0.67220620  0.12830754  0.82605246    -0.16500
C724        C  0.66105001  0.14528115  0.82905977    -0.14500
H725        H  0.62662787  0.16481387  0.84505647     0.20800
H726        H  0.60632752  0.07248114  0.87498554     0.16900
H727        H  0.55948528  0.06860491  0.89286284     0.19400
H728        H  0.66783474  0.16428705  0.81907022     0.12700
C729        C  0.35215576  0.01908026  0.93845461     0.16600
C730        C  0.32738470  0.00453697  0.95144305    -0.32400
C731        C  0.30319402  0.99333527  0.93744957     0.21000
C732        C  0.30337759  0.99729106  0.91177818     0.03200
C733        C  0.32821255  0.01193233  0.89874353    -0.22100
C734        C  0.35250440  0.02219418  0.91263311     0.12400
S735        S  0.38378117  0.03250230  0.95183918    -0.05800
C736        C  0.39756081  0.04134733  0.92222096    -0.09300
C737        C  0.37859429  0.03482269  0.90319142    -0.25900
S738        S  0.27156677  0.98138714  0.89834056    -0.03100
C739        C  0.25825925  0.96840440  0.92748821    -0.16500
C740        C  0.27742367  0.97668413  0.94648303    -0.14500
H741        H  0.32700742  0.00124392  0.97147633     0.20800
H742        H  0.32861747  0.01437438  0.87857746     0.16900
H743        H  0.38366385  0.03862007  0.88344035     0.19400
H744        H  0.27273439  0.97037627  0.96588909     0.12700
C745        C  0.11596294  0.58003519  0.65258853     0.16600
C746        C  0.13087380  0.60061284  0.67025576    -0.32400
C747        C  0.12518440  0.62218028  0.67249536     0.21000
C748        C  0.10602659  0.62368997  0.65734277     0.03200
C749        C  0.09093748  0.60297158  0.63974269    -0.22100
C750        C  0.09610205  0.58096156  0.63798720     0.12400
S751        S  0.11871089  0.55134398  0.64824158    -0.05800
C752        C  0.09239185  0.54009985  0.62701780    -0.09300
C753        C  0.08224962  0.55785060  0.62343466    -0.25900
S754        S  0.10178524  0.65131262  0.66352608    -0.03100
C755        C  0.12541216  0.66035664  0.68729397    -0.16500
C756        C  0.13619031  0.64300641  0.68979167    -0.14500
H757        H  0.14575373  0.59945960  0.68226054     0.20800
H758        H  0.07531894  0.60359302  0.62841345     0.16900
H759        H  0.06509850  0.55363634  0.61145145     0.19400
H760        H  0.15073752  0.64506787  0.70406333     0.12700
C761        C  0.14825288  0.80956114  0.81692094     0.16600
C762        C  0.14816702  0.83212106  0.82825971    -0.32400
C763        C  0.15976062  0.84009935  0.85222979     0.21000
C764        C  0.17106447  0.82632870  0.86438085     0.03200
C765        C  0.17128458  0.80384343  0.85298201    -0.22100
C766        C  0.15952899  0.79575969  0.82906356     0.12400
S767        S  0.13510375  0.79661064  0.78795432    -0.05800
C768        C  0.14481713  0.77225344  0.79221220    -0.09300
C769        C  0.15755356  0.77429786  0.81500704    -0.25900
S770        S  0.18341220  0.83880728  0.89367900    -0.03100
C771        C  0.17310851  0.86276405  0.88958565    -0.16500
C772        C  0.16101557  0.86109228  0.86652587    -0.14500
H773        H  0.13927379  0.84287983  0.81887583     0.20800
H774        H  0.18001590  0.79297138  0.86243406     0.16900
H775        H  0.16521846  0.76093945  0.82088562     0.19400
H776        H  0.15304563  0.87421485  0.86071376     0.12700
C777        C  0.71719252  0.51835617  0.82048541     0.16600
C778        C  0.69506620  0.50557820  0.83703842    -0.32400
C779        C  0.67506835  0.51348999  0.83632783     0.21000
C780        C  0.67634084  0.53265021  0.81934877     0.03200
C781        C  0.69842733  0.54527460  0.80244883    -0.22100
C782        C  0.71901768  0.53797360  0.80372848     0.12400
S783        S  0.74477977  0.51339822  0.82046892    -0.05800
C784        C  0.75921556  0.53821019  0.79790149    -0.09300
C785        C  0.74335175  0.54960629  0.79069985    -0.25900
S786        S  0.65067467  0.54058556  0.82303220    -0.03100
C787        C  0.63898298  0.51858873  0.84823933    -0.16500
C788        C  0.65375629  0.50536135  0.85277619    -0.14500
H789        H  0.69410627  0.49095419  0.85070661     0.20800
H790        H  0.70009640  0.56091886  0.78966172     0.16900
H791        H  0.74975451  0.56617767  0.77741688     0.19400
H792        H  0.64986947  0.49142392  0.86819102     0.12700
C793        C  0.96246177  0.61670171  0.74536431     0.16600
C794        C  0.98721889  0.62954301  0.73201734    -0.32400
C795        C  0.01156944  0.64185164  0.74590515     0.21000
C796        C  0.01145294  0.64056742  0.77188572     0.03200
C797        C  0.98668678  0.62778523  0.78524056    -0.22100
C798        C  0.96231810  0.61640258  0.77138630     0.12400
S799        S  0.93062800  0.60208246  0.73210667    -0.05800
C800        C  0.91714238  0.59662658  0.76195344    -0.09300
C801        C  0.93634997  0.60511035  0.78098780    -0.25900
S802        S  0.04330217  0.65713978  0.78518500    -0.03100
C803        C  0.05671829  0.66683881  0.75548417    -0.16500
C804        C  0.03747780  0.65709437  0.73643617    -0.14500
H805        H  0.98748416  0.63065771  0.71173198     0.20800
H806        H  0.98641212  0.62748829  0.80555722     0.16900
H807        H  0.93153506  0.60358427  0.80083296     0.19400
H808        H  0.04222427  0.66140040  0.71668594     0.12700
C809        C  0.95589593  0.75886187  0.51601982     0.16600
C810        C  0.93268030  0.74150014  0.53030295    -0.32400
C811        C  0.91414837  0.75063175  0.53637204     0.21000
C812        C  0.91894981  0.77630519  0.52922620     0.03200
C813        C  0.94197917  0.79352781  0.51463169    -0.22100
C814        C  0.96008046  0.78402755  0.50791611     0.12400
S815        S  0.98011300  0.75097545  0.50576813    -0.05800
C816        C  0.99549642  0.78138973  0.48956503    -0.09300
C817        C  0.98261454  0.79691387  0.49248556    -0.25900
S818        S  0.89394925  0.78351594  0.53846704    -0.03100
C819        C  0.87640128  0.75127645  0.55133769    -0.16500
C820        C  0.88954669  0.73601539  0.54872005    -0.14500
H821        H  0.92890115  0.72145931  0.53595146     0.20800
H822        H  0.94530769  0.81320991  0.50830757     0.16900
H823        H  0.98902903  0.81628562  0.48329690     0.19400
H824        H  0.88125123  0.71513068  0.55506482     0.12700
C825        C  0.80371065  0.64199673  0.65437974     0.16600
C826        C  0.80233896  0.61932564  0.66651516    -0.32400
C827        C  0.81437699  0.62350220  0.69029032     0.21000
C828        C  0.82692748  0.64900553  0.70176477     0.03200
C829        C  0.82812317  0.67169356  0.68968939    -0.22100
C830        C  0.81633368  0.66757009  0.66573671     0.12400
S831        S  0.79140439  0.64139103  0.62497253    -0.05800
C832        C  0.80354638  0.67603491  0.62785298    -0.09300
C833        C  0.81614036  0.68714578  0.65065206    -0.25900
S834        S  0.84039345  0.64957809  0.73068775    -0.03100
C835        C  0.82919822  0.61513951  0.72707622    -0.16500
C836        C  0.81568310  0.60409960  0.70465537    -0.14500
H837        H  0.79265163  0.59934222  0.65764595     0.20800
H838        H  0.83809186  0.69174063  0.69843343     0.16900
H839        H  0.82517332  0.70855827  0.65572946     0.19400
H840        H  0.80714817  0.58285475  0.69914594     0.12700
C841        C  0.62473027  0.65902795  0.57614020     0.16600
C842        C  0.64952376  0.66807100  0.56308423    -0.32400
C843        C  0.67373107  0.67868207  0.57722705     0.21000
C844        C  0.67344653  0.68118441  0.60311402     0.03200
C845        C  0.64868927  0.67206610  0.61613909    -0.22100
C846        C  0.62442801  0.66055047  0.60210888     0.12400
S847        S  0.59283259  0.64350807  0.56277997    -0.05800
C848        C  0.57904476  0.63809042  0.59257001    -0.09300
C849        C  0.59831517  0.64840495  0.61159031    -0.25900
S850        S  0.70499890  0.69464329  0.61684005    -0.03100
C851        C  0.71862058  0.69590397  0.58752767    -0.16500
C852        C  0.69958420  0.68683706  0.56822393    -0.14500
H853        H  0.64984948  0.66613217  0.54286024     0.20800
H854        H  0.64827422  0.67314913  0.63643140     0.16900
H855        H  0.59339189  0.64617796  0.63143442     0.19400
H856        H  0.70444362  0.68614460  0.54861536     0.12700
C857        C  0.52695800  0.67799741  0.69173249     0.16600
C858        C  0.54323560  0.70020075  0.70748117    -0.32400
C859        C  0.53618519  0.72080954  0.71010934     0.21000
C860        C  0.51331393  0.71887471  0.69839373     0.03200
C861        C  0.49705498  0.69669705  0.68270362    -0.22100
C862        C  0.50471893  0.67666478  0.67931440     0.12400
S863        S  0.53371439  0.65237301  0.68391498    -0.05800
C864        C  0.50708700  0.64058545  0.66292075    -0.09300
C865        C  0.49331454  0.65529305  0.66269837    -0.25900
S866        S  0.50866322  0.74634162  0.70322623    -0.03100
C867        C  0.53820538  0.76087946  0.72060606    -0.16500
C868        C  0.55079324  0.74514883  0.72268780    -0.14500
H869        H  0.56126544  0.70190856  0.71644397     0.20800
H870        H  0.47983735  0.69568486  0.67273078     0.16900
H871        H  0.47674422  0.65139421  0.65005501     0.19400
H872        H  0.56995438  0.75152926  0.73229523     0.12700
C873        C  0.48012286  0.49171421  0.47624460     0.16600
C874        C  0.47914192  0.51379763  0.48773299    -0.32400
C875        C  0.48712236  0.51942928  0.51302149     0.21000
C876        C  0.49601984  0.50403986  0.52607101     0.03200
C877        C  0.49728330  0.48231056  0.51455093    -0.22100
C878        C  0.48897663  0.47645384  0.48953545     0.12400
S879        S  0.47007382  0.48029408  0.44617299    -0.05800
C880        C  0.47765268  0.45460963  0.45193892    -0.09300
C881        C  0.48770052  0.45533248  0.47573168    -0.25900
S882        S  0.50408520  0.51331312  0.55666009    -0.03100
C883        C  0.49521078  0.53815398  0.55211654    -0.16500
C884        C  0.48669436  0.53922227  0.52793922    -0.14500
H885        H  0.47198929  0.52566738  0.47761412     0.20800
H886        H  0.50393937  0.47011137  0.52481707     0.16900
H887        H  0.49332866  0.44078034  0.48278210     0.19400
H888        H  0.48023587  0.55343831  0.52173974     0.12700
C889        C  0.42922626  0.28986435  0.33469089     0.16600
C890        C  0.41234137  0.26499285  0.32239793    -0.32400
C891        C  0.42317275  0.24766840  0.31732992     0.21000
C892        C  0.44992768  0.25516279  0.32346288     0.03200
C893        C  0.46666845  0.27984338  0.33606877    -0.22100
C894        C  0.45555066  0.29675426  0.34184980     0.12400
S895        S  0.41957909  0.31320023  0.34346720    -0.05800
C896        C  0.45094628  0.33188268  0.35770416    -0.09300
C897        C  0.46797564  0.32067869  0.35538141    -0.25900
S898        S  0.45926030  0.23135621  0.31563108    -0.03100
C899        C  0.42649282  0.21066325  0.30488419    -0.16500
C900        C  0.40948501  0.22192946  0.30697694    -0.14500
H901        H  0.39146938  0.25912692  0.31750208     0.20800
H902        H  0.48727118  0.28534471  0.34162107     0.16900
H903        H  0.48816020  0.32933015  0.36359321     0.19400
H904        H  0.38813268  0.21162350  0.30158487     0.12700
C905        C  0.04405564  0.17382059  0.48093957     0.16600
C906        C  0.02057546  0.15794662  0.49531152    -0.32400
C907        C  0.00011190  0.16529161  0.49542811     0.21000
C908        C  0.00232389  0.18684120  0.48117354     0.03200
C909        C  0.02578766  0.20266186  0.46666164    -0.22100
C910        C  0.04673346  0.19594544  0.46728811     0.12400
S911        S  0.07222374  0.16975816  0.48021753    -0.05800
C912        C  0.08793315  0.19853621  0.46189752    -0.09300
C913        C  0.07209607  0.21040813  0.45649395    -0.25900
S914        S  0.97611123  0.19369921  0.48552611    -0.03100
C915        C  0.96283445  0.16807954  0.50756612    -0.16500
C916        C  0.97749554  0.15446823  0.51056022    -0.14500
H917        H  0.01888352  0.14137712  0.50683651     0.20800
H918        H  0.02816937  0.22021802  0.45629526     0.16900
H919        H  0.07912419  0.22910846  0.44592236     0.19400
H920        H  0.97281165  0.13867200  0.52435737     0.12700
C921        C  0.29529678  0.28764373  0.42075589     0.16600
C922        C  0.32068038  0.29404881  0.41018081    -0.32400
C923        C  0.34430334  0.31511067  0.42143241     0.21000
C924        C  0.34283257  0.32904142  0.44244737     0.03200
C925        C  0.31745604  0.32263678  0.45301124    -0.22100
C926        C  0.29383102  0.30180842  0.44157171     0.12400
S927        S  0.26415287  0.26303479  0.40974175    -0.05800
C928        C  0.24901652  0.27223152  0.43322632    -0.09300
C929        C  0.26735994  0.29314214  0.44871613    -0.25900
S930        S  0.37380359  0.35489784  0.45246584    -0.03100
C931        C  0.38878189  0.34682055  0.42807748    -0.16500
C932        C  0.37066289  0.32533580  0.41306886    -0.14500
H933        H  0.32195298  0.28337053  0.39366758     0.20800
H934        H  0.31614760  0.33374964  0.46916968     0.16900
H935        H  0.26161026  0.30148660  0.46451891     0.19400
H936        H  0.37641029  0.31842427  0.39624041     0.12700
C937        C  0.25685958  0.45017286  0.20138391     0.16600
C938        C  0.28084004  0.46788171  0.18819298    -0.32400
C939        C  0.29825705  0.45782580  0.18073702     0.21000
C940        C  0.29261964  0.43164374  0.18699475     0.03200
C941        C  0.26849088  0.41383233  0.19995906    -0.22100
C942        C  0.25054254  0.42354316  0.20655992     0.12400
S943        S  0.23236922  0.45800120  0.21087231    -0.05800
C944        C  0.21290832  0.42477197  0.22103041    -0.09300
C945        C  0.22513216  0.40873833  0.21748738    -0.25900
S946        S  0.31594064  0.42306089  0.17560152    -0.03100
C947        C  0.33279265  0.45459401  0.16135922    -0.16500
C948        C  0.32111104  0.47096156  0.16574976    -0.14500
H949        H  0.28528641  0.48833369  0.18325015     0.20800
H950        H  0.26349260  0.39300851  0.20399398     0.16900
H951        H  0.21569098  0.38726026  0.22225235     0.19400
H952        H  0.32831196  0.49094434  0.15752400     0.12700
C953        C  0.14920656  0.33656532  0.33722689     0.16600
C954        C  0.15598037  0.33286350  0.36157112    -0.32400
C955        C  0.15273766  0.30724353  0.36757351     0.21000
C956        C  0.14288694  0.28609623  0.35013967     0.03200
C957        C  0.13568851  0.28968370  0.32580943    -0.22100
C958        C  0.13924505  0.31551016  0.31968527     0.12400
S959        S  0.15289723  0.36652351  0.32634014    -0.05800
C960        C  0.14095923  0.35084481  0.29766220    -0.09300
C961        C  0.13433741  0.32356082  0.29680984    -0.25900
S962        S  0.14154172  0.25692412  0.36088393    -0.03100
C963        C  0.15454829  0.27348637  0.38906249    -0.16500
C964        C  0.15925023  0.30008558  0.39000279    -0.14500
H965        H  0.16393589  0.34945414  0.37513499     0.20800
H966        H  0.12814495  0.27322664  0.31212946     0.16900
H967        H  0.12663050  0.31048302  0.28041149     0.19400
H968        H  0.16750085  0.31363979  0.40605289     0.12700
C969        C  0.01002436  0.35466664  0.27393786     0.16600
C970        C  0.98515844  0.34536453  0.28691735    -0.32400
C971        C  0.96085417  0.33304416  0.27284969     0.21000
C972        C  0.96129062  0.33111511  0.24691438     0.03200
C973        C  0.98612741  0.34041659  0.23396053    -0.22100
C974        C  0.01030431  0.35165089  0.24811584     0.12400
S975        S  0.04172116  0.36869187  0.28757145    -0.05800
C976        C  0.05524006  0.36932433  0.25829242    -0.09300
C977        C  0.03610797  0.35978055  0.23911261    -0.25900
S978        S  0.92955091  0.31443948  0.23339598    -0.03100
C979        C  0.91552830  0.30894505  0.26304609    -0.16500
C980        C  0.93462055  0.32016189  0.28220053    -0.14500
H981        H  0.98469943  0.34674316  0.30717681     0.20800
H982        H  0.98650595  0.33803046  0.21380243     0.16900
H983        H  0.04085305  0.35864826  0.21955436     0.19400
H984        H  0.92954486  0.31790706  0.30200498     0.12700
C985        C  0.85467398  0.33798610  0.36417465     0.16600
C986        C  0.86975334  0.36070643  0.37962065    -0.32400
C987        C  0.86021808  0.37933036  0.38252530     0.21000
C988        C  0.83596625  0.37490107  0.37169530     0.03200
C989        C  0.82064706  0.35194211  0.35654588    -0.22100
C990        C  0.83097651  0.33407768  0.35255831     0.12400
S991        S  0.86524883  0.31553822  0.35506799    -0.05800
C992        C  0.83827603  0.30173044  0.33452912    -0.09300
C993        C  0.82147848  0.31323699  0.33545794    -0.25900
S994        S  0.82928612  0.40120363  0.37556939    -0.03100
C995        C  0.86001295  0.41860683  0.39093165    -0.16500
C996        C  0.87417236  0.40451185  0.39351689    -0.14500
H997        H  0.88904150  0.36467078  0.38760797     0.20800
H998        H  0.80252870  0.34914022  0.34692251     0.16900
H999        H  0.80438718  0.30788712  0.32301583     0.19400
H1000       H  0.89441920  0.41298477  0.40155436     0.12700
C1001       C  0.82987237  0.14047848  0.16700670     0.16600
C1002       C  0.83708616  0.15180769  0.19109167    -0.32400
C1003       C  0.83417898  0.17461279  0.19655664     0.21000
C1004       C  0.82464547  0.18575214  0.17877513     0.03200
C1005       C  0.81758306  0.17451071  0.15460055    -0.22100
C1006       C  0.82035299  0.15157277  0.14916351     0.12400
S1007       S  0.83158620  0.11258309  0.15699852    -0.05800
C1008       C  0.81938322  0.11580213  0.12839537    -0.09300
C1009       C  0.81429046  0.13746886  0.12685114    -0.25900
S1010       S  0.82180894  0.21291257  0.18933698    -0.03100
C1011       C  0.83340088  0.20906628  0.21804113    -0.16500
C1012       C  0.83936748  0.18799321  0.21914012    -0.14500
H1013       H  0.84439609  0.14304843  0.20504781     0.20800
H1014       H  0.81000092  0.18309742  0.14073300     0.16900
H1015       H  0.80663438  0.14261605  0.11036210     0.19400
H1016       H  0.84652230  0.18239286  0.23569740     0.12700
C1017       C  0.78577130  0.97432090  0.98819536     0.16600
C1018       C  0.77136252  0.95324082  0.97072019    -0.32400
C1019       C  0.77738628  0.93177000  0.96957199     0.21000
C1020       C  0.79753465  0.93181481  0.98449968     0.03200
C1021       C  0.81199573  0.95290052  0.00178977    -0.22100
C1022       C  0.80530387  0.97377546  0.00354977     0.12400
S1023       S  0.77968965  0.00079857  0.99447679    -0.05800
C1024       C  0.80297909  0.01046226  0.01856937    -0.09300
C1025       C  0.81514807  0.99435950  0.02098754    -0.25900
S1026       S  0.80072210  0.90327263  0.98159744    -0.03100
C1027       C  0.77424644  0.89078465  0.96050277    -0.16500
C1028       C  0.76376039  0.90804437  0.95580978    -0.14500
H1029       H  0.75535927  0.95296773  0.95933470     0.20800
H1030       H  0.82695761  0.95241303  0.01414074     0.16900
H1031       H  0.82956707  0.99685751  0.03554315     0.19400
H1032       H  0.74631581  0.90292828  0.94393240     0.12700
C1033       C  0.34920786  0.86686129  0.15437954     0.16600
C1034       C  0.37222784  0.88348859  0.13959024    -0.32400
C1035       C  0.39109008  0.87442734  0.13490277     0.21000
C1036       C  0.38661814  0.84931927  0.14351437     0.03200
C1037       C  0.36356149  0.83265896  0.15822913    -0.22100
C1038       C  0.34537920  0.84231741  0.16389847     0.12400
S1039       S  0.32560520  0.87563275  0.16459215    -0.05800
C1040       C  0.31128493  0.84663163  0.18281494    -0.09300
C1041       C  0.32374049  0.83071678  0.18033702    -0.25900
S1042       S  0.41255819  0.84261558  0.13679818    -0.03100
C1043       C  0.43004564  0.87438745  0.12312435    -0.16500
C1044       C  0.41614810  0.88902597  0.12341831    -0.14500
H1045       H  0.37596138  0.90324384  0.13306153     0.20800
H1046       H  0.36063435  0.81362536  0.16595124     0.16900
H1047       H  0.31807072  0.81231600  0.19097446     0.19400
H1048       H  0.42444455  0.90970068  0.11648400     0.12700
C1049       C  0.48719433  0.98897110  0.97937613     0.16600
C1050       C  0.48558769  0.96561265  0.99038051    -0.32400
C1051       C  0.49437208  0.96773359  0.01533198     0.21000
C1052       C  0.50452079  0.99204678  0.02870057     0.03200
C1053       C  0.50641316  0.01544826  0.01761979    -0.22100
C1054       C  0.49739963  0.01325719  0.99278219     0.12400
S1055       S  0.47669743  0.99054618  0.94962181    -0.05800
C1056       C  0.48601134  0.02424288  0.95542535    -0.09300
C1057       C  0.49684511  0.03351281  0.97914013    -0.25900
S1058       S  0.51352172  0.99024310  0.05891907    -0.03100
C1059       C  0.50348225  0.95632862  0.05353941    -0.16500
C1060       C  0.49384305  0.94719715  0.02946932    -0.14500
H1061       H  0.47750344  0.94652445  0.98007308     0.20800
H1062       H  0.51421230  0.03445294  0.02802489     0.16900
H1063       H  0.50370799  0.05400714  0.98617263     0.19400
H1064       H  0.48664085  0.92654283  0.02271962     0.12700
C1065       C  0.68474650  0.99163759  0.10239346     0.16600
C1066       C  0.65969001  0.97940523  0.11531120    -0.32400
C1067       C  0.63562267  0.96608623  0.10107282     0.21000
C1068       C  0.63633591  0.96438900  0.07513736     0.03200
C1069       C  0.66140692  0.97702775  0.06216948    -0.22100
C1070       C  0.68548538  0.99091248  0.07639464     0.12400
S1071       S  0.71627236  0.00899930  0.11621825    -0.05800
C1072       C  0.73053268  0.01613717  0.08664162    -0.09300
C1073       C  0.71172225  0.00528321  0.06725745    -0.25900
S1074       S  0.60469082  0.94678110  0.06147001    -0.03100
C1075       C  0.59045095  0.94251349  0.09097165    -0.16500
C1076       C  0.60938671  0.95386105  0.11019228    -0.14500
H1077       H  0.65896479  0.98045431  0.13558148     0.20800
H1078       H  0.66211270  0.97632358  0.04187845     0.16900
H1079       H  0.71702803  0.00786235  0.04750243     0.19400
H1080       H  0.60416447  0.95331529  0.12986615     0.12700
C1081       C  0.80780448  0.78471896  0.01913527     0.16600
C1082       C  0.81470266  0.77130758  0.03744989    -0.32400
C1083       C  0.84016544  0.77239102  0.03513510     0.21000
C1084       C  0.85815631  0.78680627  0.01581128     0.03200
C1085       C  0.85144046  0.80046507  0.99781569    -0.22100
C1086       C  0.82579538  0.79874005  0.99972747     0.12400
S1087       S  0.77693683  0.78373278  0.01696629    -0.05800
C1088       C  0.78825724  0.80167819  0.98927838    -0.09300
C1089       C  0.81475110  0.80852544  0.98264347    -0.25900
S1090       S  0.88709668  0.78425022  0.01492084    -0.03100
C1091       C  0.87492016  0.76337550  0.04067929    -0.16500
C1092       C  0.84978526  0.75881474  0.04962854    -0.14500
H1093       H  0.80042019  0.75964731  0.05224622     0.20800
H1094       H  0.86518249  0.81103887  0.98232959     0.16900
H1095       H  0.82501221  0.81912854  0.96558710     0.19400
H1096       H  0.83868751  0.74538903  0.06508326     0.12700
C1097       C  0.01604022  0.79552121  0.98488237     0.16600
C1098       C  0.03943022  0.80235557  0.97027922    -0.32400
C1099       C  0.06079072  0.82962753  0.97102035     0.21000
C1100       C  0.05856364  0.84934434  0.98504413     0.03200
C1101       C  0.03526700  0.84251712  0.99959084    -0.22100
C1102       C  0.01433837  0.81517920  0.99944226     0.12400
S1103       S  0.98893446  0.76317812  0.98853139    -0.05800
C1104       C  0.97593455  0.77624060  0.01065811    -0.09300
C1105       C  0.99141291  0.80424295  0.01423071    -0.25900
S1106       S  0.08659978  0.88120079  0.98376332    -0.03100
C1107       C  0.10172502  0.86779235  0.96456231    -0.16500
C1108       C  0.08583269  0.84011184  0.95938107    -0.14500
H1109       H  0.04126388  0.78693782  0.95947244     0.20800
H1110       H  0.03388192  0.85771743  0.01116476     0.16900
H1111       H  0.98689154  0.81575921  0.02798737     0.19400
H1112       H  0.09233172  0.82835981  0.94790192     0.12700
C1113       C  0.11839717  0.46830979  0.15923921     0.16600
C1114       C  0.11378965  0.48009585  0.13785232    -0.32400
C1115       C  0.11061926  0.50328725  0.14150814     0.21000
C1116       C  0.11201044  0.51401476  0.16534072     0.03200
C1117       C  0.11696512  0.50260736  0.18636166    -0.22100
C1118       C  0.12004199  0.47969660  0.18273834     0.12400
S1119       S  0.12183330  0.43951117  0.15983139    -0.05800
C1120       C  0.12577353  0.44354631  0.19198045    -0.09300
C1121       C  0.12428400  0.46580584  0.20129301    -0.25900
S1122       S  0.10545550  0.54038945  0.16683600    -0.03100
C1123       C  0.10081136  0.53743507  0.13497010    -0.16500
C1124       C  0.10449669  0.51709460  0.12369167    -0.14500
H1125       H  0.11221831  0.47132509  0.11936099     0.20800
H1126       H  0.11777978  0.51091689  0.20495639     0.16900
H1127       H  0.12590110  0.47148180  0.22094883     0.19400
H1128       H  0.10128035  0.51171718  0.10396914     0.12700
C1129       C  0.01330392  0.64640381  0.06292965     0.16600
C1130       C  0.99465309  0.65229508  0.05100338    -0.32400
C1131       C  0.98820755  0.67075608  0.06296026     0.21000
C1132       C  0.00034214  0.68341487  0.08541089     0.03200
C1133       C  0.01910082  0.67766330  0.09724313    -0.22100
C1134       C  0.02498486  0.65866547  0.08564875     0.12400
S1135       S  0.02196607  0.62271404  0.05274293    -0.05800
C1136       C  0.04121713  0.62926341  0.07949759    -0.09300
C1137       C  0.04088769  0.64876321  0.09528917    -0.25900
S1138       S  0.98939526  0.70477173  0.09713330    -0.03100
C1139       C  0.96762245  0.69594316  0.07191491    -0.16500
C1140       C  0.96937080  0.67784338  0.05514777    -0.14500
H1141       H  0.98492421  0.64226720  0.03359284     0.20800
H1142       H  0.02810120  0.68697411  0.11509246     0.16900
H1143       H  0.05077770  0.65444603  0.11343276     0.19400
H1144       H  0.95733609  0.67012503  0.03821450     0.12700
C1145       C  0.13562233  0.68316680  0.17809958     0.16600
C1146       C  0.14255827  0.70662012  0.19252190    -0.32400
C1147       C  0.17016572  0.72336630  0.19883434     0.21000
C1148       C  0.18995465  0.71668762  0.19177808     0.03200
C1149       C  0.18307802  0.69341104  0.17701315    -0.22100
C1150       C  0.15554802  0.67707823  0.17006567     0.12400
S1151       S  0.10335225  0.66068488  0.16796012    -0.05800
C1152       C  0.11695457  0.64345792  0.15196543    -0.09300
C1153       C  0.14497606  0.65445845  0.15472427    -0.25900
S1154       S  0.22232725  0.73980431  0.20138946    -0.03100
C1155       C  0.20911847  0.75905860  0.21420350    -0.16500
C1156       C  0.18111723  0.74784815  0.21140846    -0.14500
H1157       H  0.12717137  0.71187266  0.19817311     0.20800
H1158       H  0.19857723  0.68854764  0.17080391     0.16900
H1159       H  0.15695232  0.64645883  0.14579605     0.19400
H1160       H  0.16951125  0.75744178  0.21777620     0.12700
C1161       C  0.52245701  0.78850514  0.19360439     0.16600
C1162       C  0.50529055  0.79576931  0.18073815    -0.32400
C1163       C  0.51636147  0.82319811  0.17342346     0.21000
C1164       C  0.54299940  0.84268626  0.17944844     0.03200
C1165       C  0.56018029  0.83538434  0.19206920    -0.22100
C1166       C  0.54943044  0.80786020  0.19859445     0.12400
S1167       S  0.51369896  0.75601260  0.20258523    -0.05800
C1168       C  0.54701536  0.76861100  0.21213312    -0.09300
C1169       C  0.56366407  0.79650292  0.20898699    -0.25900
S1170       S  0.55286242  0.87473897  0.16862904    -0.03100
C1171       C  0.52111899  0.86166063  0.15515872    -0.16500
C1172       C  0.50379112  0.83394660  0.15908130    -0.14500
H1173       H  0.48452410  0.78056752  0.17595228     0.20800
H1174       H  0.58129753  0.85036385  0.19593423     0.16900
H1175       H  0.58531321  0.80769289  0.21327699     0.19400
H1176       H  0.48343498  0.82222471  0.15129379     0.12700
C1177       C  0.51158595  0.62635521  0.14921645     0.16600
C1178       C  0.50356881  0.60201089  0.13580758    -0.32400
C1179       C  0.47541133  0.58428960  0.13241827     0.21000
C1180       C  0.45610362  0.59101771  0.14096209     0.03200
C1181       C  0.46412625  0.61535860  0.15433808    -0.22100
C1182       C  0.49218771  0.63249146  0.15868907     0.12400
S1183       S  0.54447824  0.64906439  0.15781900    -0.05800
C1184       C  0.53177062  0.66626461  0.17519472    -0.09300
C1185       C  0.50365950  0.65525703  0.17377006    -0.25900
S1186       S  0.42290131  0.56626812  0.13583680    -0.03100
C1187       C  0.43515641  0.54623333  0.12303490    -0.16500
C1188       C  0.46345714  0.55845804  0.12232559    -0.14500
H1189       H  0.51853468  0.59651730  0.12934306     0.20800
H1190       H  0.44907101  0.62011631  0.16202770     0.16900
H1191       H  0.49209629  0.66269113  0.18432571     0.19400
H1192       H  0.47462859  0.54854817  0.11558607     0.12700
C1193       C  0.83054112  0.51418679  0.31361683     0.16600
C1194       C  0.82287339  0.52388530  0.29271930    -0.32400
C1195       C  0.79591357  0.51928319  0.29206041     0.21000
C1196       C  0.77722808  0.50487404  0.31093019     0.03200
C1197       C  0.78475428  0.49488695  0.33152237    -0.22100
C1198       C  0.81182905  0.50030900  0.33259158     0.12400
S1199       S  0.86292101  0.51996010  0.31953039    -0.05800
C1200       C  0.85105742  0.50439759  0.34817116    -0.09300
C1201       C  0.82345196  0.49465483  0.35234549    -0.25900
S1202       S  0.74646701  0.50363505  0.30821533    -0.03100
C1203       C  0.75884690  0.52297420  0.28154845    -0.16500
C1204       C  0.78539404  0.52982964  0.27506237    -0.14500
H1205       H  0.83760203  0.53562285  0.27824370     0.20800
H1206       H  0.77048420  0.48455348  0.34673775     0.16900
H1207       H  0.81259381  0.48471062  0.36941833     0.19400
H1208       H  0.79694805  0.54336447  0.25981826     0.12700
C1209       C  0.82649194  0.64278970  0.13452488     0.16600
C1210       C  0.80367170  0.61992799  0.14477365    -0.32400
C1211       C  0.79832429  0.62059340  0.17046557     0.21000
C1212       C  0.81488501  0.64301459  0.18536083     0.03200
C1213       C  0.83778021  0.66586088  0.17512436    -0.22100
C1214       C  0.84314630  0.66518230  0.14941436     0.12400
S1215       S  0.83632478  0.64609470  0.10371094    -0.05800
C1216       C  0.86319635  0.67801772  0.11090682    -0.09300
C1217       C  0.86426844  0.68542848  0.13597447    -0.25900
S1218       S  0.80452570  0.63989840  0.21603553    -0.03100
C1219       C  0.77765870  0.60798753  0.20872332    -0.16500
C1220       C  0.77701788  0.60044118  0.18376636    -0.14500
H1221       H  0.79058384  0.60240806  0.13320291     0.20800
H1222       H  0.85077530  0.68344620  0.18666377     0.16900
H1223       H  0.87963864  0.70469494  0.14393341     0.19400
H1224       H  0.76155288  0.58129713  0.17568644     0.12700
C1225       C  0.62300246  0.63884566  0.25416384     0.16600
C1226       C  0.63326281  0.62379983  0.26623104    -0.32400
C1227       C  0.64732757  0.61392358  0.25153784     0.21000
C1228       C  0.65015429  0.61775654  0.22577529     0.03200
C1229       C  0.63982855  0.63278117  0.21367015    -0.22100
C1230       C  0.62673304  0.64364091  0.22856014     0.12400
S1231       S  0.60688952  0.65412141  0.26894808    -0.05800
C1232       C  0.60624471  0.66803834  0.24052374    -0.09300
C1233       C  0.61731345  0.66057386  0.22067932    -0.25900
S1234       S  0.66851003  0.60450336  0.21152492    -0.03100
C1235       C  0.67335386  0.59493705  0.24079100    -0.16500
C1236       C  0.66074433  0.60099826  0.26022921    -0.14500
H1237       H  0.63121201  0.62073286  0.28634709     0.20800
H1238       H  0.64270530  0.63664714  0.19368878     0.16900
H1239       H  0.61871237  0.66751895  0.20153488     0.19400
H1240       H  0.66187102  0.59665537  0.27982577     0.12700
C1241       C  0.60912059  0.49460932  0.31815184     0.16600
C1242       C  0.58111361  0.48263003  0.32289227    -0.32400
C1243       C  0.57115722  0.46827966  0.34528639     0.21000
C1244       C  0.58821833  0.46588615  0.36249971     0.03200
C1245       C  0.61662877  0.47855597  0.35802550    -0.22100
C1246       C  0.62668786  0.49302150  0.33537958     0.12400
S1247       S  0.62426138  0.51118466  0.29114401    -0.05800
C1248       C  0.65486187  0.51661847  0.30300876    -0.09300
C1249       C  0.65339005  0.50619353  0.32687928    -0.25900
S1250       S  0.57114899  0.44599000  0.38791872    -0.03100
C1251       C  0.54098789  0.44119430  0.37495509    -0.16500
C1252       C  0.54433004  0.45450245  0.35239525    -0.14500
H1253       H  0.56748993  0.48393294  0.30936046     0.20800
H1254       H  0.63016160  0.47678536  0.37131952     0.16900
H1255       H  0.67063103  0.50749721  0.33701966     0.19400
H1256       H  0.52779206  0.45365449  0.34136422     0.12700
C1257       C  0.16744317  0.44150841  0.69393981     0.16600
C1258       C  0.15938541  0.45953842  0.68430782    -0.32400
C1259       C  0.13247987  0.44832437  0.67557360     0.21000
C1260       C  0.11408088  0.42049563  0.67705898     0.03200
C1261       C  0.12219552  0.40243124  0.68652863    -0.22100
C1262       C  0.14937793  0.41355642  0.69451278     0.12400
S1263       S  0.19964307  0.45090966  0.70418978    -0.05800
C1264       C  0.18889987  0.41677114  0.70839591    -0.09300
C1265       C  0.16171093  0.39920909  0.70252037    -0.25900
S1266       S  0.08280662  0.41080220  0.66426185    -0.03100
C1267       C  0.09499740  0.44443160  0.65621334    -0.16500
C1268       C  0.12167739  0.46212829  0.66338268    -0.14500
H1269       H  0.17372098  0.48124947  0.68292356     0.20800
H1270       H  0.10822267  0.38057786  0.68683983     0.16900
H1271       H  0.15169296  0.37711044  0.70361656     0.19400
H1272       H  0.13300923  0.48364938  0.65865652     0.12700
C1273       C  0.37514593  0.51610011  0.64374382     0.16600
C1274       C  0.35002835  0.50790846  0.65590016    -0.32400
C1275       C  0.33272739  0.47980286  0.66007580     0.21000
C1276       C  0.33968327  0.46060386  0.65173729     0.03200
C1277       C  0.36494645  0.46881382  0.63988752    -0.22100
C1278       C  0.38264708  0.49697229  0.63649049     0.12400
S1279       S  0.39952274  0.54929252  0.63785940    -0.05800
C1280       C  0.42041698  0.53734275  0.62640518    -0.09300
C1281       C  0.40877915  0.50908751  0.62689061    -0.25900
S1282       S  0.31624059  0.42757552  0.65918708    -0.03100
C1283       C  0.29738310  0.43978717  0.67458355    -0.16500
C1284       C  0.30863177  0.46798898  0.67348270    -0.14500
H1285       H  0.34453928  0.52286938  0.66244607     0.20800
H1286       H  0.37088745  0.45392348  0.63420885     0.16900
H1287       H  0.41907808  0.49804169  0.62083602     0.19400
H1288       H  0.30023253  0.47933481  0.68296377     0.12700
C1289       C  0.42924645  0.17726274  0.83491801     0.16600
C1290       C  0.43207691  0.16370510  0.85554660    -0.32400
C1291       C  0.44621152  0.14931502  0.85198473     0.21000
C1292       C  0.45671614  0.14785800  0.82877794     0.03200
C1293       C  0.45430240  0.16195754  0.80804426    -0.22100
C1294       C  0.44048912  0.17692547  0.81174976     0.12400
S1295       S  0.41233578  0.19531754  0.83584569    -0.05800
C1296       C  0.42097451  0.20346755  0.80482814    -0.09300
C1297       C  0.43606583  0.19234933  0.79430151    -0.25900
S1298       S  0.47192474  0.12778251  0.82861776    -0.03100
C1299       C  0.46461978  0.12224932  0.86026242    -0.16500
C1300       C  0.45098396  0.13508484  0.87002752    -0.14500
H1301       H  0.42355203  0.16431718  0.87367016     0.20800
H1302       H  0.46272537  0.16125083  0.78990624     0.16900
H1303       H  0.44308898  0.19513842  0.77501913     0.19400
H1304       H  0.44435567  0.13359443  0.88937354     0.12700
C1305       C  0.32925250  0.35453766  0.75247464     0.16600
C1306       C  0.34773020  0.34886527  0.76491259    -0.32400
C1307       C  0.35642063  0.33244384  0.75239650     0.21000
C1308       C  0.34780007  0.32270411  0.72827084     0.03200
C1309       C  0.32946383  0.32854731  0.71576002    -0.22100
C1310       C  0.32011989  0.34426303  0.72858613     0.12400
S1311       S  0.31494507  0.37267694  0.76500364    -0.05800
C1312       C  0.29590236  0.36561846  0.73805342    -0.09300
C1313       C  0.30087157  0.35045278  0.72028454    -0.25900
S1314       S  0.35890868  0.30119006  0.71724129    -0.03100
C1315       C  0.37474438  0.30492029  0.74563529    -0.16500
C1316       C  0.37185011  0.32224938  0.76242249    -0.14500
H1317       H  0.35425602  0.35607725  0.78389988     0.20800
H1318       H  0.32193181  0.32026851  0.69723466     0.16900
H1319       H  0.29073869  0.34410575  0.70227545     0.19400
H1320       H  0.37906926  0.32564790  0.78163073     0.12700
C1321       C  0.46183305  0.35488224  0.84507122     0.16600
C1322       C  0.46818550  0.37847695  0.85913558    -0.32400
C1323       C  0.49595091  0.39741380  0.86307736     0.21000
C1324       C  0.51647240  0.39271528  0.85400753     0.03200
C1325       C  0.51012702  0.36934258  0.83963653    -0.22100
C1326       C  0.48240504  0.35076297  0.83515822     0.12400
S1327       S  0.42947532  0.32989984  0.83741943    -0.05800
C1328       C  0.44385382  0.31424598  0.81999649    -0.09300
C1329       C  0.47221405  0.32762992  0.82053366    -0.25900
S1330       S  0.54888739  0.41802638  0.86096732    -0.03100
C1331       C  0.53468844  0.43547474  0.87558409    -0.16500
C1332       C  0.50633893  0.42219783  0.87516444    -0.14500
H1333       H  0.45219125  0.38214794  0.86631588     0.20800
H1334       H  0.52613927  0.36601339  0.83191324     0.16900
H1335       H  0.48472072  0.32108265  0.81030554     0.19400
H1336       H  0.49405580  0.43042095  0.88301889     0.12700
C1337       C  0.50378919  0.86350487  0.65986550     0.16600
C1338       C  0.49658581  0.87588604  0.64083594    -0.32400
C1339       C  0.46920794  0.86993488  0.63983880     0.21000
C1340       C  0.44975480  0.85187466  0.65659498     0.03200
C1341       C  0.45696720  0.83962970  0.67560764    -0.22100
C1342       C  0.48440467  0.84615104  0.67702149     0.12400
S1343       S  0.53614213  0.86908261  0.66529011    -0.05800
C1344       C  0.52342382  0.84849824  0.69135027    -0.09300
C1345       C  0.49557061  0.83765097  0.69517593    -0.25900
S1346       S  0.41795140  0.84813057  0.65311782    -0.03100
C1347       C  0.43102494  0.87152968  0.62920778    -0.16500
C1348       C  0.45856135  0.88155500  0.62415045    -0.14500
H1349       H  0.51178974  0.89012206  0.62785254     0.20800
H1350       H  0.44198474  0.82622744  0.68919869     0.16900
H1351       H  0.48417194  0.82463782  0.71076149     0.19400
H1352       H  0.47034238  0.89731771  0.61053063     0.12700
C1353       C  0.25885518  0.78734762  0.70113403     0.16600
C1354       C  0.28314380  0.79498158  0.68780094    -0.32400
C1355       C  0.29950673  0.82267722  0.68157762     0.21000
C1356       C  0.29271671  0.84220627  0.68925637     0.03200
C1357       C  0.26840712  0.83457541  0.70263069    -0.22100
C1358       C  0.25140377  0.80666243  0.70784837     0.12400
S1359       S  0.23504817  0.75441533  0.70844764    -0.05800
C1360       C  0.21435685  0.76665234  0.71964822    -0.09300
C1361       C  0.22569539  0.79482113  0.71825839    -0.25900
S1362       S  0.31458243  0.87449601  0.67857694    -0.03100
C1363       C  0.33224717  0.86124016  0.66272746    -0.16500
C1364       C  0.32204471  0.83346769  0.66619193    -0.14500
H1365       H  0.28842856  0.77979455  0.68154262     0.20800
H1366       H  0.26238819  0.84955417  0.70770945     0.16900
H1367       H  0.21531066  0.80591135  0.72389109     0.19400
H1368       H  0.32988285  0.82155452  0.65685595     0.12700
C1369       C  0.17787503  0.12094184  0.54201926     0.16600
C1370       C  0.16130474  0.12882691  0.52903029    -0.32400
C1371       C  0.17312647  0.15627572  0.52161601     0.21000
C1372       C  0.19989594  0.17531151  0.52771152     0.03200
C1373       C  0.21643207  0.16743707  0.54069451    -0.22100
C1374       C  0.20495258  0.13981070  0.54722461     0.12400
S1375       S  0.16834945  0.08809483  0.55042714    -0.05800
C1376       C  0.20147419  0.09988816  0.56006085    -0.09300
C1377       C  0.21861541  0.12777518  0.55740617    -0.25900
S1378       S  0.21094943  0.20722222  0.51576668    -0.03100
C1379       C  0.17952962  0.19454135  0.50172367    -0.16500
C1380       C  0.16141971  0.16719566  0.50647464    -0.14500
H1381       H  0.14051488  0.11397428  0.52392499     0.20800
H1382       H  0.23770835  0.18195569  0.54451417     0.16900
H1383       H  0.24028470  0.13844978  0.56166560     0.19400
H1384       H  0.14128416  0.15561747  0.49819928     0.12700
C1385       C  0.28598500  0.97861672  0.60477956     0.16600
C1386       C  0.29873035  0.96630544  0.61753841    -0.32400
C1387       C  0.31113091  0.95448440  0.60304934     0.21000
C1388       C  0.31038460  0.95426659  0.57703092     0.03200
C1389       C  0.29795360  0.96689165  0.56428013    -0.22100
C1390       C  0.28610500  0.97926492  0.57876332     0.12400
S1391       S  0.27025253  0.99466294  0.61883198    -0.05800
C1392       C  0.26463798  0.00301842  0.58932419    -0.09300
C1393       C  0.27411617  0.99348788  0.56982121    -0.25900
S1394       S  0.32663083  0.93874619  0.56294516    -0.03100
C1395       C  0.33521030  0.93340097  0.59242700    -0.16500
C1396       C  0.32561722  0.94276491  0.61195830    -0.14500
H1397       H  0.29932896  0.96630223  0.63784807     0.20800
H1398       H  0.29788220  0.96742274  0.54397034     0.16900
H1399       H  0.27251269  0.99702853  0.55010748     0.19400
H1400       H  0.32945235  0.94141192  0.63164832     0.12700
C1401       C  0.15826845  0.95976468  0.49523637     0.16600
C1402       C  0.14858609  0.94315212  0.47365193    -0.32400
C1403       C  0.12768033  0.91585668  0.47681540     0.21000
C1404       C  0.11699053  0.90580261  0.50041866     0.03200
C1405       C  0.12608396  0.92251005  0.52171958    -0.22100
C1406       C  0.14694537  0.94954749  0.51858694     0.12400
S1407       S  0.18511122  0.99266290  0.49613164    -0.05800
C1408       C  0.18080682  0.99237839  0.52824836    -0.09300
C1409       C  0.15948709  0.96816207  0.53743325    -0.25900
S1410       S  0.09369993  0.87187359  0.50113917    -0.03100
C1411       C  0.09784933  0.87096823  0.46925719    -0.16500
C1412       C  0.11634067  0.89584612  0.45857589    -0.14500
H1413       H  0.15750160  0.95088917  0.45538127     0.20800
H1414       H  0.11785436  0.91449160  0.54012701     0.16900
H1415       H  0.15414388  0.96393829  0.55709956     0.19400
H1416       H  0.12198868  0.89880863  0.43891184     0.12700
C1417       C  0.31553002  0.16023301  0.69734209     0.16600
C1418       C  0.29221358  0.13844583  0.68659854    -0.32400
C1419       C  0.29447804  0.13052837  0.66209348     0.21000
C1420       C  0.31879993  0.14371643  0.64867951     0.03200
C1421       C  0.34220137  0.16558934  0.65944284    -0.22100
C1422       C  0.33995504  0.17345744  0.68407002     0.12400
S1423       S  0.31690336  0.17274811  0.72693173    -0.05800
C1424       C  0.35083427  0.19604069  0.72153775    -0.09300
C1425       C  0.36031064  0.19408367  0.69787693    -0.25900
S1426       S  0.31696694  0.13085401  0.61904825    -0.03100
C1427       C  0.28310834  0.10745270  0.62497119    -0.16500
C1428       C  0.27404333  0.10975644  0.64865151    -0.14500
H1429       H  0.27311427  0.12805589  0.69692139     0.20800
H1430       H  0.36129738  0.17597808  0.64911877     0.16900
H1431       H  0.38100043  0.20706808  0.69114139     0.19400
H1432       H  0.25344139  0.09692825  0.65567009     0.12700
C1433       C  0.85625216  0.44663877  0.85817597     0.16600
C1434       C  0.84230859  0.45340064  0.84042565    -0.32400
C1435       C  0.84719086  0.48039009  0.84022538     0.21000
C1436       C  0.86461960  0.49971388  0.85737735     0.03200
C1437       C  0.87860196  0.49293626  0.87520272    -0.22100
C1438       C  0.87427764  0.46606267  0.87496837     0.12400
S1439       S  0.85469795  0.41559363  0.85996138    -0.05800
C1440       C  0.87890715  0.42892926  0.88325104    -0.09300
C1441       C  0.88755798  0.45601615  0.88934325    -0.25900
S1442       S  0.86844533  0.53162663  0.85325842    -0.03100
C1443       C  0.84697690  0.51892107  0.82772473    -0.16500
C1444       C  0.83712596  0.49128951  0.82317075    -0.14500
H1445       H  0.82890160  0.43847470  0.82679010     0.20800
H1446       H  0.89288733  0.50816906  0.88814521     0.16900
H1447       H  0.90346712  0.46797313  0.90279412     0.19400
H1448       H  0.82397102  0.47994830  0.80763426     0.12700
C1449       C  0.79188409  0.25892121  0.81252230     0.16600
C1450       C  0.79951379  0.28061210  0.82946199    -0.32400
C1451       C  0.82755682  0.29814552  0.83329143     0.21000
C1452       C  0.84720644  0.29508890  0.81999665     0.03200
C1453       C  0.83957587  0.27347804  0.80296540    -0.22100
C1454       C  0.81155015  0.25520645  0.79999456     0.12400
S1455       S  0.75903284  0.23344047  0.80770753    -0.05800
C1456       C  0.77209448  0.21722987  0.78947894    -0.09300
C1457       C  0.80025324  0.23113743  0.78684697    -0.25900
S1458       S  0.88016565  0.31784376  0.82811291    -0.03100
C1459       C  0.86721893  0.33071952  0.85035819    -0.16500
C1460       C  0.83896560  0.31846800  0.85092256    -0.14500
H1461       H  0.78427241  0.28289090  0.84014787     0.20800
H1462       H  0.85484079  0.27026064  0.79338718     0.16900
H1463       H  0.81188862  0.22324462  0.77706258     0.19400
H1464       H  0.82740716  0.32361298  0.86409404     0.12700
C1465       C  0.99524021  0.47273033  0.98147546     0.16600
C1466       C  0.01809676  0.49426486  0.99302051    -0.32400
C1467       C  0.01519650  0.50065956  0.01791571     0.21000
C1468       C  0.99074262  0.48618459  0.03094219     0.03200
C1469       C  0.96789837  0.46443683  0.01945100    -0.22100
C1470       C  0.97074858  0.45816413  0.99443829     0.12400
S1471       S  0.99439844  0.46237674  0.95112589    -0.05800
C1472       C  0.96066738  0.43811931  0.95590092    -0.09300
C1473       C  0.95083705  0.43817861  0.97985627    -0.25900
S1474       S  0.99140618  0.49785394  0.06083408    -0.03100
C1475       C  0.02490797  0.52260279  0.05552738    -0.16500
C1476       C  0.03483793  0.52146092  0.03192981    -0.14500
H1477       H  0.03721820  0.50579370  0.98292633     0.20800
H1478       H  0.94867101  0.45314298  0.02943624     0.16900
H1479       H  0.93014806  0.42445809  0.98619995     0.19400
H1480       H  0.05528838  0.53545754  0.02519899     0.12700
C1481       C  0.18665952  0.19886937  0.99428952     0.16600
C1482       C  0.17977393  0.21620224  0.98135700    -0.32400
C1483       C  0.15250024  0.20539933  0.97378633     0.21000
C1484       C  0.13317486  0.17817449  0.97767802     0.03200
C1485       C  0.14013251  0.16075768  0.99042684    -0.22100
C1486       C  0.16708206  0.17194284  0.99915957     0.12400
S1487       S  0.21764063  0.20912965  0.00800430    -0.05800
C1488       C  0.20370308  0.17721999  0.02129657    -0.09300
C1489       C  0.17674342  0.15947153  0.01484985    -0.25900
S1490       S  0.10081331  0.16950937  0.96826327    -0.03100
C1491       C  0.11329448  0.20320447  0.96020416    -0.16500
C1492       C  0.14114830  0.21986903  0.96389882    -0.14500
H1493       H  0.19463833  0.23758593  0.97859767     0.20800
H1494       H  0.12483826  0.13984830  0.99459768     0.16900
H1495       H  0.16444478  0.13909912  0.02242972     0.19400
H1496       H  0.15227030  0.24169649  0.96046968     0.12700
C1497       C  0.15558709  0.30641772  0.85786061     0.16600
C1498       C  0.17782243  0.32798335  0.84560722    -0.32400
C1499       C  0.17858422  0.32719483  0.81932733     0.21000
C1500       C  0.15850851  0.30556521  0.80571213     0.03200
C1501       C  0.13640855  0.28367048  0.81802864    -0.22100
C1502       C  0.13532024  0.28477437  0.84438542     0.12400
S1503       S  0.14990528  0.30492797  0.88948809    -0.05800
C1504       C  0.11964001  0.27498244  0.88465540    -0.09300
C1505       C  0.11471868  0.26647762  0.85973804    -0.25900
S1506       S  0.16308554  0.30913806  0.77381008    -0.03100
C1507       C  0.19204980  0.34032116  0.77901164    -0.16500
C1508       C  0.19776332  0.34708808  0.80417269    -0.14500
H1509       H  0.19345900  0.34509865  0.85608425     0.20800
H1510       H  0.12039912  0.26690916  0.80751551     0.16900
H1511       H  0.09658451  0.24838411  0.85312210     0.19400
H1512       H  0.21502975  0.36579701  0.81106344     0.12700
C1513       C  0.99428596  0.28887246  0.90722844     0.16600
C1514       C  0.97967337  0.29900086  0.89398974    -0.32400
C1515       C  0.96960331  0.31371844  0.90759759     0.21000
C1516       C  0.97338788  0.31768407  0.93329689     0.03200
C1517       C  0.98846935  0.30808969  0.94639087    -0.22100
C1518       C  0.99897879  0.29388903  0.93273105     0.12400
S1519       S  0.00800287  0.27019406  0.89445123    -0.05800
C1520       C  0.02083571  0.26999595  0.92365822    -0.09300
C1521       C  0.01450546  0.28346917  0.94213189    -0.25900
S1522       S  0.95901283  0.33546262  0.94651253    -0.03100
C1523       C  0.94854111  0.33837215  0.91701211    -0.16500
C1524       C  0.95567682  0.32594248  0.89808897    -0.14500
H1525       H  0.97639587  0.29566752  0.87398044     0.20800
H1526       H  0.99197563  0.31164673  0.96635909     0.16900
H1527       H  0.02078279  0.28532065  0.96154672     0.19400
H1528       H  0.95107320  0.32605818  0.87840850     0.12700
C1529       C  0.97161744  0.18141337  0.02206609     0.16600
C1530       C  0.94795208  0.17617781  0.03559362    -0.32400
C1531       C  0.92919584  0.14881959  0.04161317     0.21000
C1532       C  0.93440072  0.12780297  0.03546798     0.03200
C1533       C  0.95793418  0.13302681  0.02187830    -0.22100
C1534       C  0.97603874  0.16014813  0.01489384     0.12400
S1535       S  0.99569001  0.21274671  0.01089384    -0.05800
C1536       C  0.01108152  0.19676913  0.99552615    -0.09300
C1537       C  0.99843555  0.16879263  0.99945747    -0.25900
S1538       S  0.90894428  0.09595300  0.04381811    -0.03100
C1539       C  0.89045263  0.11083307  0.05465798    -0.16500
C1540       C  0.90376840  0.13912672  0.05239117    -0.14500
H1541       H  0.94380179  0.19255235  0.04030666     0.20800
H1542       H  0.96142023  0.11648433  0.01610850     0.16900
H1543       H  0.00467744  0.15532125  0.99062527     0.19400
H1544       H  0.89494140  0.15177610  0.05761562     0.12700
C1545       C  0.46680532  0.10819330  0.36735539     0.16600
C1546       C  0.47438995  0.09244118  0.38208989    -0.32400
C1547       C  0.50242363  0.10106568  0.38407739     0.21000
C1548       C  0.52216272  0.12506308  0.37298135     0.03200
C1549       C  0.51458680  0.14091897  0.35841624    -0.22100
C1550       C  0.48651335  0.13155815  0.35540070     0.12400
S1551       S  0.43382518  0.09930114  0.35989586    -0.05800
C1552       C  0.44675550  0.12655144  0.33953109    -0.09300
C1553       C  0.47511612  0.14208926  0.33935964    -0.25900
S1554       S  0.55499008  0.13119888  0.37649178    -0.03100
C1555       C  0.54187585  0.10058100  0.39213804    -0.16500
C1556       C  0.51364210  0.08681593  0.39491114    -0.14500
H1557       H  0.45905203  0.07349068  0.39050275     0.20800
H1558       H  0.52986748  0.15896653  0.34874143     0.16900
H1559       H  0.48681952  0.15928579  0.32703505     0.19400
H1560       H  0.50188817  0.06688273  0.40350145     0.12700
C1561       C  0.68075949  0.12680021  0.32755481     0.16600
C1562       C  0.70445570  0.13429470  0.31314742    -0.32400
C1563       C  0.72162020  0.16225882  0.30807582     0.21000
C1564       C  0.71491656  0.18173748  0.31612699     0.03200
C1565       C  0.69139589  0.17427720  0.33063598    -0.22100
C1566       C  0.67483023  0.14652383  0.33650049     0.12400
S1567       S  0.65838698  0.09431612  0.33759618    -0.05800
C1568       C  0.64166826  0.10774870  0.35476731    -0.09300
C1569       C  0.65262653  0.13574387  0.35229859    -0.25900
S1570       S  0.73852710  0.21461029  0.30854749    -0.03100
C1571       C  0.75820424  0.20221156  0.29520097    -0.16500
C1572       C  0.74671641  0.17397959  0.29632541    -0.14500
H1573       H  0.70978050  0.11912620  0.30693639     0.20800
H1574       H  0.68672029  0.18959002  0.33779963     0.16900
H1575       H  0.64534279  0.14773004  0.36236448     0.19400
H1576       H  0.75656932  0.16276773  0.28954966     0.12700
C1577       C  0.50391864  0.01095714  0.50012102     0.16600
C1578       C  0.49052762  0.00716407  0.52330054    -0.32400
C1579       C  0.46877298  0.98096842  0.52874006     0.21000
C1580       C  0.46037209  0.95963903  0.51162383     0.03200
C1581       C  0.47349539  0.96354205  0.48828832    -0.22100
C1582       C  0.49555711  0.98961195  0.48302729     0.12400
S1583       S  0.53163008  0.04076436  0.49056835    -0.05800
C1584       C  0.53204783  0.02434497  0.46323455    -0.09300
C1585       C  0.51153303  0.99721386  0.46174244    -0.25900
S1586       S  0.43422425  0.92920267  0.52207790    -0.03100
C1587       C  0.43489812  0.94519003  0.55002543    -0.16500
C1588       C  0.45416084  0.97282303  0.55080072    -0.14500
H1589       H  0.49719590  0.02376693  0.53676016     0.20800
H1590       H  0.46714653  0.94681233  0.47501402     0.16900
H1591       H  0.50864778  0.98369902  0.44605053     0.19400
H1592       H  0.45760360  0.98612802  0.56679804     0.12700
C1593       C  0.77292822  0.78706234  0.49093899     0.16600
C1594       C  0.75778503  0.79352778  0.47429851    -0.32400
C1595       C  0.76395179  0.82091825  0.47317716     0.21000
C1596       C  0.78491050  0.84116459  0.48731849     0.03200
C1597       C  0.80007099  0.83471706  0.50389895    -0.22100
C1598       C  0.79326836  0.80721282  0.50563912     0.12400
S1599       S  0.76682470  0.75468074  0.49693481    -0.05800
C1600       C  0.79115955  0.76841093  0.52012305    -0.09300
C1601       C  0.80374453  0.79660476  0.52245022    -0.25900
S1602       S  0.78841807  0.87293393  0.48415843    -0.03100
C1603       C  0.76096558  0.85863995  0.46410409    -0.16500
C1604       C  0.74992652  0.83084570  0.45995823    -0.14500
H1605       H  0.74118708  0.77773595  0.46346565     0.20800
H1606       H  0.81573247  0.85028665  0.51568104     0.16900
H1607       H  0.81881548  0.80854841  0.53656624     0.19400
H1608       H  0.73201694  0.81845429  0.44861341     0.12700
C1609       C  0.67333653  0.97575749  0.41229834     0.16600
C1610       C  0.66266069  0.98990019  0.39917922    -0.32400
C1611       C  0.65157427  0.00333145  0.41328136     0.21000
C1612       C  0.65167827  0.00330621  0.43930062     0.03200
C1613       C  0.66190713  0.98874966  0.45241323    -0.22100
C1614       C  0.67238641  0.97476981  0.43830164     0.12400
S1615       S  0.68794328  0.95832660  0.39872907    -0.05800
C1616       C  0.69194547  0.94892003  0.42837282    -0.09300
C1617       C  0.68265227  0.95902428  0.44759124    -0.25900
S1618       S  0.63764761  0.02128604  0.45287725    -0.03100
C1619       C  0.63067716  0.02801427  0.42319052    -0.16500
C1620       C  0.63925560  0.01720363  0.40396681    -0.14500
H1621       H  0.66279451  0.99025107  0.37885715     0.20800
H1622       H  0.66150336  0.98814560  0.47272954     0.16900
H1623       H  0.68371105  0.95530431  0.46736138     0.19400
H1624       H  0.63632091  0.01916296  0.38417730     0.12700
C1625       C  0.78709653  0.99934910  0.52089502     0.16600
C1626       C  0.79397024  0.02426382  0.53275400    -0.32400
C1627       C  0.82184223  0.04292057  0.53644416     0.21000
C1628       C  0.84195973  0.03654653  0.52981568     0.03200
C1629       C  0.83508371  0.01160311  0.51801080    -0.22100
C1630       C  0.80730031  0.99352021  0.51319723     0.12400
S1631       S  0.75475237  0.97551497  0.51192291    -0.05800
C1632       C  0.76876245  0.95826092  0.49662321    -0.09300
C1633       C  0.79688459  0.97003459  0.49908586    -0.25900
S1634       S  0.87464471  0.06233253  0.53513085    -0.03100
C1635       C  0.86106479  0.08224680  0.54532223    -0.16500
C1636       C  0.83273655  0.06927920  0.54508950    -0.14500
H1637       H  0.77836588  0.02944871  0.53773342     0.20800
H1638       H  0.85079666  0.00707776  0.51174121     0.16900
H1639       H  0.80920089  0.96263361  0.48981091     0.19400
H1640       H  0.82082004  0.07891747  0.55029916     0.12700
C1641       C  0.65509120  0.80552316  0.31141499     0.16600
C1642       C  0.67717581  0.82699524  0.32403546    -0.32400
C1643       C  0.67359831  0.83110818  0.34950652     0.21000
C1644       C  0.64911820  0.81468100  0.36189394     0.03200
C1645       C  0.62699590  0.79329943  0.34924412    -0.22100
C1646       C  0.63061156  0.78910966  0.32380706     0.12400
S1647       S  0.65533178  0.79689180  0.28057129    -0.05800
C1648       C  0.62211618  0.77079049  0.28442913    -0.09300
C1649       C  0.61163818  0.76920635  0.30842628    -0.25900
S1650       S  0.64897945  0.82302515  0.39283016    -0.03100
C1651       C  0.68226392  0.84898391  0.38905042    -0.16500
C1652       C  0.69266225  0.85081146  0.36497982    -0.14500
H1653       H  0.69635039  0.83986819  0.31445289     0.20800
H1654       H  0.60783269  0.78040681  0.35883576     0.16900
H1655       H  0.59117793  0.75421056  0.31434064     0.19400
H1656       H  0.71310412  0.86586270  0.35907236     0.12700
loop_ 
_geom_bond_atom_site_label_1 
_geom_bond_atom_site_label_2 
_geom_bond_distance 
_geom_bond_site_symmetry_2 
_ccdc_geom_bond_type 
O1            V9   1.904       .  S
O1           C11   1.264       .  A
O2            V9   1.910       .  S
O2           C12   1.266       .  A
O3            V9   1.894       .  S
O3           C13   1.262       .  A
O4            V9   1.896       .  S
O4           C14   1.263       .  A
O5           V10   1.912       .  S
O5           C14   1.267       .  A
O6           V10   1.910       .  S
O6           C13   1.266       .  A
O7           V10   1.893       .  S
O7           C12   1.262       .  A
O8           V10   1.896       .  S
O8           C11   1.262       .  A
V9           V10   2.088       .  T
C11        C1603   1.461       .  S
C12        C1616   1.469       .  S
C13        C1632   1.467       .  S
C14        C1651   1.477       .  S
O15          V23   1.912       .  S
O15          C25   1.266       .  A
O16          V23   1.917       .  S
O16          C26   1.268       .  A
O17          V23   1.895       .  S
O17          C27   1.263       .  A
O18          V23   1.897       .  S
O18          C28   1.263       .  A
O19          V24   1.911       .  S
O19          C28   1.267       .  A
O20          V24   1.913       .  S
O20          C27   1.267       .  A
O21          V24   1.893       .  S
O21          C26   1.262       .  A
O22          V24   1.898       .  S
O22          C25   1.263       .  A
V23          V24   2.086       .  T
C25        C1555   1.470       .  S
C26        C1619   1.472       .  S
C27        C1568   1.470       .  S
C28        C1584   1.476       .  S
O29          V37   1.911       .  S
O29          C39   1.266       .  A
O30          V37   1.915       .  S
O30          C40   1.267       .  A
O31          V37   1.901       .  S
O31          C41   1.264       .  A
O32          V37   1.899       .  S
O32          C42   1.264       .  A
O33          V38   1.913       .  S
O33          C42   1.266       .  A
O34          V38   1.908       .  S
O34          C41   1.267       .  A
O35          V38   1.889       .  S
O35          C40   1.261       .  A
O36          V38   1.891       .  S
O36          C39   1.262       .  A
V37          V38   2.088       .  T
C39        C1491   1.468       .  S
C40        C1520   1.471       .  S
C41        C1504   1.477       .  S
C42        C1536   1.474       .  S
O43          V51   1.910       .  S
O43          C53   1.266       .  A
O44          V51   1.915       .  S
O44          C54   1.268       .  A
O45          V51   1.893       .  S
O45          C55   1.262       .  A
O46          V51   1.891       .  S
O46          C56   1.262       .  A
O47          V52   1.903       .  S
O47          C56   1.264       .  A
O48          V52   1.907       .  S
O48          C55   1.266       .  A
O49          V52   1.895       .  S
O49          C54   1.262       .  A
O50          V52   1.899       .  S
O50          C53   1.263       .  A
V51          V52   2.088       .  T
C53        C1440   1.468       .  S
C54        C1523   1.471       .  S
C55        C1472   1.471       .  S
C56        C1459   1.462       .  S
O57          V65   1.910       .  S
O57          C67   1.266       .  A
O58          V65   1.909       .  S
O58          C68   1.266       .  A
O59          V65   1.892       .  S
O59          C69   1.263       .  A
O60          V65   1.892       .  S
O60          C70   1.263       .  A
O61          V66   1.913       .  S
O61          C70   1.267       .  A
O62          V66   1.913       .  S
O62          C69   1.267       .  A
O63          V66   1.887       .  S
O63          C68   1.261       .  A
O64          V66   1.887       .  S
O64          C67   1.261       .  A
V65          V66   2.083       .  T
C67        C1376   1.463       .  S
C68        C1392   1.464       .  S
C69        C1427   1.475       .  S
C70        C1408   1.475   1_545  S
O71          V79   1.906       .  S
O71          C81   1.265       .  A
O72          V79   1.910       .  S
O72          C82   1.266       .  A
O73          V79   1.897       .  S
O73          C83   1.263       .  A
O74          V79   1.894       .  S
O74          C84   1.263       .  A
O75          V80   1.911       .  S
O75          C84   1.266       .  A
O76          V80   1.912       .  S
O76          C83   1.268       .  A
O77          V80   1.884       .  S
O77          C82   1.260       .  A
O78          V80   1.893       .  S
O78          C81   1.261       .  A
V79          V80   2.088       .  T
C81        C1347   1.461       .  S
C82        C1395   1.461       .  S
C83        C1587   1.476       .  S
C84        C1363   1.468       .  S
O85          V93   1.918       .  S
O85          C95   1.268       .  A
O86          V93   1.916       .  S
O86          C96   1.267       .  A
O87          V93   1.901       .  S
O87          C97   1.264       .  A
O88          V93   1.897       .  S
O88          C98   1.263       .  A
O89          V94   1.909       .  S
O89          C98   1.267       .  A
O90          V94   1.906       .  S
O90          C97   1.265       .  A
O91          V94   1.883       .  S
O91          C96   1.259       .  A
O92          V94   1.889       .  S
O92          C95   1.262       .  A
V93          V94   2.087       .  T
C95        C1296   1.475       .  S
C96        C1315   1.462       .  S
C97        C1328   1.472       .  S
C98        C1424   1.475       .  S
O99         V107   1.906       .  S
O99         C109   1.265       .  A
O100        V107   1.907       .  S
O100        C110   1.266       .  A
O101        V107   1.895       .  S
O101        C111   1.262       .  A
O102        V107   1.896       .  S
O102        C112   1.264       .  A
O103        V108   1.915       .  S
O103        C112   1.267       .  A
O104        V108   1.914       .  S
O104        C111   1.268       .  A
O105        V108   1.888       .  S
O105        C110   1.261       .  A
O106        V108   1.895       .  S
O106        C109   1.262       .  A
V107        V108   2.088       .  T
C109       C1264   1.466       .  S
C110       C1312   1.468       .  S
C111       C1283   1.473       .  S
C112       C1507   1.479       .  S
O113        V121   1.910       .  S
O113        C123   1.265       .  A
O114        V121   1.909       .  S
O114        C124   1.265       .  A
O115        V121   1.895       .  S
O115        C125   1.263       .  A
O116        V121   1.893       .  S
O116        C126   1.263       .  A
O117        V122   1.911       .  S
O117        C126   1.265       .  A
O118        V122   1.912       .  S
O118        C125   1.267       .  A
O119        V122   1.889       .  S
O119        C124   1.262       .  A
O120        V122   1.888       .  S
O120        C123   1.260       .  A
V121        V122   2.086       .  T
C123       C1203   1.459       .  S
C124       C1235   1.464       .  S
C125       C1219   1.477       .  S
C126       C1248   1.465       .  S
O127        V135   1.908       .  S
O127        C137   1.265       .  A
O128        V135   1.912       .  S
O128        C138   1.267       .  A
O129        V135   1.897       .  S
O129        C139   1.263       .  A
O130        V135   1.892       .  S
O130        C140   1.262       .  A
O131        V136   1.911       .  S
O131        C140   1.266       .  A
O132        V136   1.912       .  S
O132        C139   1.267       .  A
O133        V136   1.888       .  S
O133        C138   1.261       .  A
O134        V136   1.892       .  S
O134        C137   1.262       .  A
V135        V136   2.088       .  T
C137       C1168   1.466       .  S
C138       C1232   1.467       .  S
C139       C1648   1.478       .  S
C140       C1184   1.467       .  S
O141        V149   1.913       .  S
O141        C151   1.266       .  A
O142        V149   1.915       .  S
O142        C152   1.267       .  A
O143        V149   1.900       .  S
O143        C153   1.263       .  A
O144        V149   1.890       .  S
O144        C154   1.262       .  A
O145        V150   1.910       .  S
O145        C154   1.267       .  A
O146        V150   1.905       .  S
O146        C153   1.265       .  A
O147        V150   1.888       .  S
O147        C152   1.260       .  A
O148        V150   1.888       .  S
O148        C151   1.262       .  A
V149        V150   2.087       .  T
C151       C1123   1.464       .  S
C152       C1136   1.465       .  S
C153       C1152   1.469       .  S
C154       C1475   1.472       .  S
O155        V163   1.907       .  S
O155        C165   1.264       .  A
O156        V163   1.909       .  S
O156        C166   1.266       .  A
O157        V163   1.892       .  S
O157        C167   1.263       .  A
O158        V163   1.896       .  S
O158        C168   1.263       .  A
O159        V164   1.911       .  S
O159        C168   1.267       .  A
O160        V164   1.908       .  S
O160        C167   1.265       .  A
O161        V164   1.894       .  S
O161        C166   1.263       .  A
O162        V164   1.897       .  S
O162        C165   1.263       .  A
V163        V164   2.088       .  T
C165       C1091   1.463       .  S
C166       C1139   1.473       .  S
C167       C1104   1.468       .  S
C168       C1216   1.477       .  S
O169        V177   1.913       .  S
O169        C179   1.266       .  A
O170        V177   1.917       .  S
O170        C180   1.268       .  A
O171        V177   1.896       .  S
O171        C181   1.262       .  A
O172        V177   1.897       .  S
O172        C182   1.263       .  A
O173        V178   1.908       .  S
O173        C182   1.266       .  A
O174        V178   1.907       .  S
O174        C181   1.266       .  A
O175        V178   1.891       .  S
O175        C180   1.262       .  A
O176        V178   1.897       .  S
O176        C179   1.263       .  A
V177        V178   2.087       .  T
C179       C1043   1.470       .  S
C180       C1075   1.473       .  S
C181       C1171   1.465       .  S
C182       C1059   1.475       .  S
O183        V191   1.911       .  S
O183        C193   1.267       .  A
O184        V191   1.915       .  S
O184        C194   1.267       .  A
O185        V191   1.885       .  S
O185        C195   1.261       .  A
O186        V191   1.885       .  S
O186        C196   1.260       .  A
O187        V192   1.913       .  S
O187        C196   1.268       .  A
O188        V192   1.915       .  S
O188        C195   1.268       .  A
O189        V192   1.896       .  S
O189        C194   1.262       .  A
O190        V192   1.901       .  S
O190        C193   1.263       .  A
V191        V192   2.086       .  T
C193       C1539   1.472       .  S
C194       C1072   1.472       .  S
C195       C1024   1.470       .  S
C196       C1008   1.469       .  S
O197        V205   1.910       .  S
O197        C207   1.267       .  A
O198        V205   1.918       .  S
O198        C208   1.268       .  A
O199        V205   1.887       .  S
O199        C209   1.261       .  A
O200        V205   1.883       .  S
O200        C210   1.260       .  A
O201        V206   1.904       .  S
O201        C210   1.264       .  A
O202        V206   1.905       .  S
O202        C209   1.266       .  A
O203        V206   1.895       .  S
O203        C208   1.262       .  A
O204        V206   1.899       .  S
O204        C207   1.263       .  A
V205        V206   2.087       .  T
C207       C1571   1.471       .  S
C208        C979   1.474       .  S
C209       C1011   1.466       .  S
C210        C992   1.457       .  S
O211        V219   1.914       .  S
O211        C221   1.267       .  A
O212        V219   1.916       .  S
O212        C222   1.268       .  A
O213        V219   1.880       .  S
O213        C223   1.259       .  A
O214        V219   1.873       .  S
O214        C224   1.260       .  A
O215        V220   1.927       .  S
O215        C224   1.270       .  A
O216        V220   1.926       .  S
O216        C223   1.271       .  A
O217        V220   1.898       .  S
O217        C222   1.263       .  A
O218        V220   1.902       .  S
O218        C221   1.263       .  A
V219        V220   2.083       .  T
C221        C944   1.476       .  S
C222        C976   1.477       .  S
C223        C960   1.476       .  S
C224       C1120   1.475       .  S
O225        V233   1.904       .  S
O225        C235   1.264       .  A
O226        V233   1.913       .  S
O226        C236   1.267       .  A
O227        V233   1.889       .  S
O227        C237   1.261       .  A
O228        V233   1.894       .  S
O228        C238   1.262       .  A
O229        V234   1.910       .  S
O229        C238   1.267       .  A
O230        V234   1.911       .  S
O230        C237   1.266       .  A
O231        V234   1.891       .  S
O231        C236   1.262       .  A
O232        V234   1.892       .  S
O232        C235   1.261       .  A
V233        V234   2.089       .  T
C235        C912   1.459       .  S
C236        C928   1.474       .  S
C237       C1379   1.463       .  S
C238        C963   1.474       .  S
O239        V247   1.913       .  S
O239        C249   1.266       .  A
O240        V247   1.914       .  S
O240        C250   1.267       .  A
O241        V247   1.897       .  S
O241        C251   1.263       .  A
O242        V247   1.890       .  S
O242        C252   1.263       .  A
O243        V248   1.911       .  S
O243        C252   1.266       .  A
O244        V248   1.908       .  S
O244        C251   1.266       .  A
O245        V248   1.889       .  S
O245        C250   1.260       .  A
O246        V248   1.890       .  S
O246        C249   1.264       .  A
V247        V248   2.086       .  T
C249       C1251   1.475       .  S
C250        C931   1.463       .  S
C251        C896   1.469       .  S
C252        C880   1.472       .  S
O253        V261   1.914       .  S
O253        C263   1.267       .  A
O254        V261   1.919       .  S
O254        C264   1.268       .  A
O255        V261   1.897       .  S
O255        C265   1.263       .  A
O256        V261   1.892       .  S
O256        C266   1.263       .  A
O257        V262   1.905       .  S
O257        C266   1.265       .  A
O258        V262   1.901       .  S
O258        C265   1.266       .  A
O259        V262   1.893       .  S
O259        C264   1.262       .  A
O260        V262   1.900       .  S
O260        C263   1.263       .  A
V261        V262   2.087       .  T
C263       C1280   1.474       .  S
C264        C848   1.474       .  S
C265        C883   1.469       .  S
C266        C864   1.466       .  S
O267        V275   1.912       .  S
O267        C277   1.267       .  A
O268        V275   1.917       .  S
O268        C278   1.268       .  A
O269        V275   1.896       .  S
O269        C279   1.263       .  A
O270        V275   1.887       .  S
O270        C280   1.261       .  A
O271        V276   1.909       .  S
O271        C280   1.266       .  A
O272        V276   1.912       .  S
O272        C279   1.268       .  A
O273        V276   1.897       .  S
O273        C278   1.263       .  A
O274        V276   1.903       .  S
O274        C277   1.264       .  A
V275        V276   2.085       .  T
C277        C819   1.475       .  S
C278        C851   1.476       .  S
C279        C832   1.477       .  S
C280       C1600   1.466       .  S
O281        V289   1.907       .  S
O281        C291   1.265       .  A
O282        V289   1.912       .  S
O282        C292   1.266       .  A
O283        V289   1.896       .  S
O283        C293   1.263       .  A
O284        V289   1.892       .  S
O284        C294   1.263       .  A
O285        V290   1.916       .  S
O285        C294   1.268       .  A
O286        V290   1.914       .  S
O286        C293   1.267       .  A
O287        V290   1.891       .  S
O287        C292   1.262       .  A
O288        V290   1.897       .  S
O288        C291   1.262       .  A
V289        V290   2.088       .  T
C291        C784   1.463       .  S
C292        C800   1.468       .  S
C293       C1443   1.477       .  S
C294        C835   1.477       .  S
O295        V303   1.909       .  S
O295        C305   1.266       .  A
O296        V303   1.914       .  S
O296        C306   1.267       .  A
O297        V303   1.897       .  S
O297        C307   1.264       .  A
O298        V303   1.900       .  S
O298        C308   1.264       .  A
O299        V304   1.910       .  S
O299        C308   1.267       .  A
O300        V304   1.912       .  S
O300        C307   1.267       .  A
O301        V304   1.890       .  S
O301        C306   1.261       .  A
O302        V304   1.897       .  S
O302        C305   1.263       .  A
V303        V304   2.086       .  T
C305       C1360   1.468       .  S
C306        C803   1.469       .  S
C307        C755   1.475       .  S
C308        C768   1.478       .  S
O309        V317   1.911       .  S
O309        C319   1.266       .  A
O310        V317   1.909       .  S
O310        C320   1.266       .  A
O311        V317   1.893       .  S
O311        C321   1.263       .  A
O312        V317   1.890       .  S
O312        C322   1.263       .  A
O313        V318   1.918       .  S
O313        C322   1.268       .  A
O314        V318   1.917       .  S
O314        C321   1.269       .  A
O315        V318   1.892       .  S
O315        C320   1.262       .  A
O316        V318   1.890       .  S
O316        C319   1.261       .  A
V317        V318   2.081       .  T
C319        C720   1.464       .  S
C320        C736   1.466       .  S
C321       C1056   1.477       .  S
C322       C1299   1.474       .  S
O323        V331   1.902       .  S
O323        C333   1.264       .  A
O324        V331   1.910       .  S
O324        C334   1.265       .  A
O325        V331   1.901       .  S
O325        C335   1.265       .  A
O326        V331   1.900       .  S
O326        C336   1.264       .  A
O327        V332   1.910       .  S
O327        C336   1.266       .  A
O328        V332   1.910       .  S
O328        C335   1.266       .  A
O329        V332   1.889       .  S
O329        C334   1.262       .  A
O330        V332   1.899       .  S
O330        C333   1.263       .  A
V331        V332   2.088       .  T
C333       C1107   1.462       .  S
C334        C739   1.467       .  S
C335        C771   1.478       .  S
C336        C707   1.475       .  S
O337        V345   1.909       .  S
O337        C347   1.266       .  A
O338        V345   1.914       .  S
O338        C348   1.267       .  A
O339        V345   1.889       .  S
O339        C349   1.262       .  A
O340        V345   1.885       .  S
O340        C350   1.262       .  A
O341        V346   1.918       .  S
O341        C350   1.268       .  A
O342        V346   1.918       .  S
O342        C349   1.269       .  A
O343        V346   1.893       .  S
O343        C348   1.262       .  A
O344        V346   1.899       .  S
O344        C347   1.263       .  A
V345        V346   2.085       .  T
C347       C1331   1.468       .  S
C348        C672   1.469       .  S
C349        C688   1.477       .  S
C350        C787   1.472       .  S
O351        V359   1.908       .  S
O351        C361   1.265       .  A
O352        V359   1.911       .  S
O352        C362   1.267       .  A
O353        V359   1.894       .  S
O353        C363   1.263       .  A
O354        V359   1.893       .  S
O354        C364   1.263       .  A
O355        V360   1.910       .  S
O355        C364   1.266       .  A
O356        V360   1.912       .  S
O356        C363   1.267       .  A
O357        V360   1.895       .  S
O357        C362   1.263       .  A
O358        V360   1.897       .  S
O358        C361   1.262       .  A
V359        V360   2.087       .  T
C361       C1027   1.464       .  S
C362        C675   1.472       .  S
C363        C656   1.476       .  S
C364       C1088   1.473       .  S
O365        V373   1.903       .  S
O365        C375   1.263       .  A
O366        V373   1.908       .  S
O366        C376   1.266       .  A
O367        V373   1.895       .  S
O367        C377   1.263       .  A
O368        V373   1.897       .  S
O368        C378   1.264       .  A
O369        V374   1.905       .  S
O369        C378   1.265       .  A
O370        V374   1.905       .  S
O370        C377   1.265       .  A
O371        V374   1.889       .  S
O371        C376   1.262       .  A
O372        V374   1.890       .  S
O372        C375   1.261       .  A
V373        V374   2.089       .  T
C375       C1456   1.457       .  S
C376        C640   1.467       .  S
C377        C723   1.465       .  S
C378        C627   1.472       .  S
O379        V387   1.904       .  S
O379        C389   1.264       .  A
O380        V387   1.908       .  S
O380        C390   1.265       .  A
O381        V387   1.894       .  S
O381        C391   1.263       .  A
O382        V387   1.898       .  S
O382        C392   1.264       .  A
O383        V388   1.908       .  S
O383        C392   1.267       .  A
O384        V388   1.908       .  S
O384        C391   1.266       .  A
O385        V388   1.890       .  S
O385        C390   1.261       .  A
O386        V388   1.896       .  S
O386        C389   1.262       .  A
V387        V388   2.088       .  T
C389        C867   1.462       .  S
C390        C643   1.461       .  S
C391       C1344   1.471       .  S
C392        C659   1.475       .  S
O393        V401   1.907       .  S
O393        C403   1.265       .  A
O394        V401   1.909       .  S
O394        C404   1.266       .  A
O395        V401   1.887       .  S
O395        C405   1.261       .  A
O396        V401   1.885       .  S
O396        C406   1.261       .  A
O397        V402   1.911       .  S
O397        C406   1.266       .  A
O398        V402   1.911       .  S
O398        C405   1.267       .  A
O399        V402   1.897       .  S
O399        C404   1.262       .  A
O400        V402   1.899       .  S
O400        C403   1.263       .  A
V401        V402   2.088       .  T
C403       C1635   1.468       .  S
C404        C608   1.468       .  S
C405        C624   1.471       .  S
C406        C915   1.465       .  S
O407        V415   1.911       .  S
O407        C417   1.266       .  A
O408        V415   1.913       .  S
O408        C418   1.267       .  A
O409        V415   1.887       .  S
O409        C419   1.260       .  A
O410        V415   1.887       .  S
O410        C420   1.260       .  A
O411        V416   1.906       .  S
O411        C420   1.265       .  A
O412        V416   1.904       .  S
O412        C419   1.266       .  A
O413        V416   1.893       .  S
O413        C418   1.262       .  A
O414        V416   1.898       .  S
O414        C417   1.262       .  A
V415        V416   2.089       .  T
C417        C752   1.468       .  S
C418        C611   1.471       .  S
C419        C592   1.465       .  S
C420       C1267   1.458       .  S
O421        V429   1.900       .  S
O421        C431   1.262       .  A
O422        V429   1.905       .  S
O422        C432   1.265       .  A
O423        V429   1.883       .  S
O423        C433   1.261       .  A
O424        V429   1.886       .  S
O424        C434   1.261       .  A
O425        V430   1.905       .  S
O425        C434   1.266       .  A
O426        V430   1.911       .  S
O426        C433   1.266       .  A
O427        V430   1.892       .  S
O427        C432   1.262       .  A
O428        V430   1.887       .  S
O428        C431   1.261       .  A
V429        V430   2.089       .  T
C431        C995   1.454       .  S
C432        C576   1.469       .  S
C433       C1200   1.468       .  S
C434        C595   1.464       .  S
O435        V443   1.914       .  S
O435        C445   1.266       .  A
O436        V443   1.913       .  S
O436        C446   1.267       .  A
O437        V443   1.901       .  S
O437        C447   1.263       .  A
O438        V443   1.897       .  S
O438        C448   1.264       .  A
O439        V444   1.920       .  S
O439        C448   1.269       .  A
O440        V444   1.914       .  S
O440        C447   1.268       .  A
O441        V444   1.884       .  S
O441        C446   1.259       .  A
O442        V444   1.888       .  S
O442        C445   1.261       .  A
V443        V444   2.085       .  T
C445       C1411   1.465       .  S
C446        C579   1.459       .  S
C447        C816   1.477   1_455  S
C448        C563   1.483       .  S
O449        V457   1.909       .  S
O449        C459   1.266       .  A
O450        V457   1.915       .  S
O450        C460   1.267       .  A
O451        V457   1.893       .  S
O451        C461   1.263       .  A
O452        V457   1.893       .  S
O452        C462   1.262       .  A
O453        V458   1.917       .  S
O453        C462   1.268       .  A
O454        V458   1.918       .  S
O454        C461   1.268       .  A
O455        V458   1.894       .  S
O455        C460   1.263       .  A
O456        V458   1.899       .  S
O456        C459   1.263       .  A
V457        V458   2.087       .  T
C459        C899   1.470       .  S
C460        C544   1.475       .  S
C461        C531   1.479       .  S
C462       C1552   1.474       .  S
O463        V471   1.909       .  S
O463        C473   1.266       .  A
O464        V471   1.914       .  S
O464        C474   1.267       .  A
O465        V471   1.902       .  S
O465        C475   1.264       .  A
O466        V471   1.896       .  S
O466        C476   1.263       .  A
O467        V472   1.912       .  S
O467        C476   1.267       .  A
O468        V472   1.914       .  S
O468        C475   1.268       .  A
O469        V472   1.893       .  S
O469        C474   1.261       .  A
O470        V472   1.896       .  S
O470        C473   1.262       .  A
V471        V472   2.087       .  T
C473       C1155   1.468       .  S
C474        C547   1.468       .  S
C475        C560   1.482       .  S
C476       C1040   1.472       .  S
O477        V485   1.910       .  S
O477        C487   1.266       .  A
O478        V485   1.916       .  S
O478        C488   1.267       .  A
O479        V485   1.894       .  S
O479        C489   1.262       .  A
O480        V485   1.903       .  S
O480        C490   1.264       .  A
O481        V486   1.906       .  S
O481        C490   1.267       .  A
O482        V486   1.906       .  S
O482        C489   1.265       .  A
O483        V486   1.896       .  S
O483        C488   1.262       .  A
O484        V486   1.900       .  S
O484        C487   1.263       .  A
V485        V486   2.088       .  T
C487        C704   1.470       .  S
C488        C512   1.471       .  S
C489       C1488   1.463       .  S
C490        C528   1.478       .  S
O491        V499   1.912       .  S
O491        C501   1.266       .  A
O492        V499   1.921       .  S
O492        C502   1.269       .  A
O493        V499   1.899       .  S
O493        C503   1.263       .  A
O494        V499   1.902       .  S
O494        C504   1.264       .  A
O495        V500   1.907       .  S
O495        C504   1.267       .  A
O496        V500   1.912       .  S
O496        C503   1.267       .  A
O497        V500   1.889       .  S
O497        C502   1.261       .  A
O498        V500   1.895       .  S
O498        C501   1.262       .  A
V499        V500   2.087       .  T
C501       C1187   1.468       .  S
C502        C515   1.476       .  S
C503        C947   1.472       .  S
C504        C691   1.477       .  S
C505        S511   1.713       .  A
C505        C510   1.387       .  A
C505        C506   1.402       .  A
C506        C507   1.404       .  A
C506        H517   1.083       .  S
C507        C516   1.369       .  A
C507        C508   1.386       .  A
C508        S514   1.718       .  A
C508        C509   1.406       .  A
C509        C510   1.408       .  A
C509        H518   1.082       .  S
C510        C513   1.374       .  A
S511        C512   1.719       .  A
C512        C513   1.389       .  A
C513        H519   1.083       .  S
S514        C515   1.724       .  A
C515        C516   1.388       .  A
C516        H520   1.083       .  S
C521        S527   1.713       .  A
C521        C526   1.386       .  A
C521        C522   1.408       .  A
C522        C523   1.408       .  A
C522        H533   1.083       .  S
C523        C532   1.380       .  A
C523        C524   1.387       .  A
C524        S530   1.703       .  A
C524        C525   1.400       .  A
C525        C526   1.400       .  A
C525        H534   1.083       .  S
C526        C529   1.371       .  A
S527        C528   1.728       .  A
C528        C529   1.386       .  A
C529        H535   1.083       .  S
S530        C531   1.723       .  A
C531        C532   1.391       .  A
C532        H536   1.083       .  S
C537        S543   1.715       .  A
C537        C542   1.387       .  A
C537        C538   1.405   1_545  A
C538        C539   1.407       .  A
C538        H549   1.084       .  S
C539        C548   1.373       .  A
C539        C540   1.387       .  A
C540        S546   1.711       .  A
C540        C541   1.401       .  A
C541        C542   1.403   1_565  A
C541        H550   1.084       .  S
C542        C545   1.369       .  A
S543        C544   1.724       .  A
C544        C545   1.387       .  A
C545        H551   1.084       .  S
S546        C547   1.719       .  A
C547        C548   1.388       .  A
C548        H552   1.084       .  S
C553        S559   1.711       .  A
C553        C558   1.386       .  A
C553        C554   1.408       .  A
C554        C555   1.407       .  A
C554        H565   1.083       .  S
C555        C564   1.380       .  A
C555        C556   1.387       .  A
C556        S562   1.706       .  A
C556        C557   1.404       .  A
C557        C558   1.403       .  A
C557        H566   1.084       .  S
C558        C561   1.376       .  A
S559        C560   1.728       .  A
C560        C561   1.388       .  A
C561        H567   1.083       .  S
S562        C563   1.726       .  A
C563        C564   1.391       .  A
C564        H568   1.083       .  S
C569        S575   1.709       .  A
C569        C574   1.387       .  A
C569        C570   1.401       .  A
C570        C571   1.403       .  A
C570        H581   1.084       .  S
C571        C580   1.369       .  A
C571        C572   1.387       .  A
C572        S578   1.708   1_655  A
C572        C573   1.400       .  A
C573        C574   1.401       .  A
C573        H582   1.084       .  S
C574        C577   1.367       .  A
S575        C576   1.722       .  A
C576        C577   1.386       .  A
C577        H583   1.084       .  S
S578        C579   1.718       .  A
C579        C580   1.385   1_455  A
C580        H584   1.084       .  S
C585        S591   1.702       .  A
C585        C590   1.388   1_455  A
C585        C586   1.400   1_455  A
C586        C587   1.400       .  A
C586        H597   1.083   1_655  S
C587        C596   1.369       .  A
C587        C588   1.388       .  A
C588        S594   1.700       .  A
C588        C589   1.398       .  A
C589        C590   1.399       .  A
C589        H598   1.083       .  S
C590        C593   1.368       .  A
S591        C592   1.723       .  A
C592        C593   1.383   1_455  A
C593        H599   1.083       .  S
S594        C595   1.722       .  A
C595        C596   1.384       .  A
C596        H600   1.083       .  S
C601        S607   1.708       .  A
C601        C606   1.387       .  A
C601        C602   1.400       .  A
C602        C603   1.402       .  A
C602        H613   1.084       .  S
C603        C612   1.369   1_655  A
C603        C604   1.387   1_655  A
C604        S610   1.714       .  A
C604        C605   1.405   1_455  A
C605        C606   1.406       .  A
C605        H614   1.084       .  S
C606        C609   1.373       .  A
S607        C608   1.719       .  A
C608        C609   1.388       .  A
C609        H615   1.084       .  S
S610        C611   1.723       .  A
C611        C612   1.385       .  A
C612        H616   1.084       .  S
C617        S623   1.711       .  A
C617        C622   1.387       .  A
C617        C618   1.401       .  A
C618        C619   1.404       .  A
C618        H629   1.083       .  S
C619        C628   1.369       .  A
C619        C620   1.387       .  A
C620        S626   1.709       .  A
C620        C621   1.401       .  A
C621        C622   1.403       .  A
C621        H630   1.083       .  S
C622        C625   1.367       .  A
S623        C624   1.722       .  A
C624        C625   1.387       .  A
C625        H631   1.083       .  S
S626        C627   1.723       .  A
C627        C628   1.387       .  A
C628        H632   1.083       .  S
C633        S639   1.711       .  A
C633        C638   1.387       .  A
C633        C634   1.400   1_545  A
C634        C635   1.403       .  A
C634        H645   1.084       .  S
C635        C644   1.367       .  A
C635        C636   1.388       .  A
C636        S642   1.710       .  A
C636        C637   1.400       .  A
C637        C638   1.402   1_565  A
C637        H646   1.084       .  S
C638        C641   1.366       .  A
S639        C640   1.721       .  A
C640        C641   1.386       .  A
C641        H647   1.084       .  S
S642        C643   1.719       .  A
C643        C644   1.384       .  A
C644        H648   1.084       .  S
C649        S655   1.713       .  A
C649        C654   1.386       .  A
C649        C650   1.404       .  A
C650        C651   1.406       .  A
C650        H661   1.082       .  S
C651        C660   1.373       .  A
C651        C652   1.387       .  A
C652        S658   1.709       .  A
C652        C653   1.401       .  A
C653        C654   1.403       .  A
C653        H662   1.082       .  S
C654        C657   1.369       .  A
S655        C656   1.725       .  A
C656        C657   1.387       .  A
C657        H663   1.083       .  S
S658        C659   1.722       .  A
C659        C660   1.390       .  A
C660        H664   1.083       .  S
C665        S671   1.714       .  A
C665        C670   1.387       .  A
C665        C666   1.403       .  A
C666        C667   1.405       .  A
C666        H677   1.084       .  S
C667        C676   1.371       .  A
C667        C668   1.387       .  A
C668        S674   1.711       .  A
C668        C669   1.401       .  A
C669        C670   1.403       .  A
C669        H678   1.084       .  S
C670        C673   1.369       .  A
S671        C672   1.722       .  A
C672        C673   1.386       .  A
C673        H679   1.084       .  S
S674        C675   1.721       .  A
C675        C676   1.388       .  A
C676        H680   1.084       .  S
C681        S687   1.717       .  A
C681        C686   1.386       .  A
C681        C682   1.406       .  A
C682        C683   1.408   1_556  A
C682        H693   1.083       .  S
C683        C692   1.375       .  A
C683        C684   1.387       .  A
C684        S690   1.708       .  A
C684        C685   1.400       .  A
C685        C686   1.402   1_554  A
C685        H694   1.083       .  S
C686        C689   1.368       .  A
S687        C688   1.725       .  A
C688        C689   1.387       .  A
C689        H695   1.083       .  S
S690        C691   1.721       .  A
C691        C692   1.391       .  A
C692        H696   1.083       .  S
C697        S703   1.710       .  A
C697        C702   1.387       .  A
C697        C698   1.403       .  A
C698        C699   1.403       .  A
C698        H709   1.084       .  S
C699        C708   1.372   1_544  A
C699        C700   1.387       .  A
C700        S706   1.713   1_545  A
C700        C701   1.405       .  A
C701        C702   1.406       .  A
C701        H710   1.084       .  S
C702        C705   1.375       .  A
S703        C704   1.721       .  A
C704        C705   1.387       .  A
C705        H711   1.084       .  S
S706        C707   1.724   1_554  A
C707        C708   1.387       .  A
C708        H712   1.084       .  S
C713        S719   1.710       .  A
C713        C718   1.387       .  A
C713        C714   1.402       .  A
C714        C715   1.403       .  A
C714        H725   1.083       .  S
C715        C724   1.370       .  A
C715        C716   1.387       .  A
C716        S722   1.709       .  A
C716        C717   1.401       .  A
C717        C718   1.403       .  A
C717        H726   1.083       .  S
C718        C721   1.369       .  A
S719        C720   1.719       .  A
C720        C721   1.385       .  A
C721        H727   1.083       .  S
S722        C723   1.720       .  A
C723        C724   1.385       .  A
C724        H728   1.083       .  S
C729        S735   1.709       .  A
C729        C734   1.387       .  A
C729        C730   1.398       .  A
C730        C731   1.401   1_545  A
C730        H741   1.083       .  S
C731        C740   1.365       .  A
C731        C732   1.387       .  A
C732        S738   1.714       .  A
C732        C733   1.403   1_565  A
C733        C734   1.405       .  A
C733        H742   1.083       .  S
C734        C737   1.369       .  A
S735        C736   1.718       .  A
C736        C737   1.387       .  A
C737        H743   1.083       .  S
S738        C739   1.722       .  A
C739        C740   1.384       .  A
C740        H744   1.084       .  S
C745        S751   1.709       .  A
C745        C750   1.387       .  A
C745        C746   1.402       .  A
C746        C747   1.403       .  A
C746        H757   1.084       .  S
C747        C756   1.371       .  A
C747        C748   1.387       .  A
C748        S754   1.713       .  A
C748        C749   1.405       .  A
C749        C750   1.406       .  A
C749        H758   1.084       .  S
C750        C753   1.375       .  A
S751        C752   1.719       .  A
C752        C753   1.387       .  A
C753        H759   1.084       .  S
S754        C755   1.725       .  A
C755        C756   1.387       .  A
C756        H760   1.084       .  S
C761        S767   1.711       .  A
C761        C766   1.386       .  A
C761        C762   1.403       .  A
C762        C763   1.404       .  A
C762        H773   1.083       .  S
C763        C772   1.373       .  A
C763        C764   1.386       .  A
C764        S770   1.712       .  A
C764        C765   1.404       .  A
C765        C766   1.405       .  A
C765        H774   1.083       .  S
C766        C769   1.373       .  A
S767        C768   1.723       .  A
C768        C769   1.390       .  A
C769        H775   1.083       .  S
S770        C771   1.725       .  A
C771        C772   1.389       .  A
C772        H776   1.083       .  S
C777        S783   1.706       .  A
C777        C782   1.388       .  A
C777        C778   1.397       .  A
C778        C779   1.399       .  A
C778        H789   1.084       .  S
C779        C788   1.364       .  A
C779        C780   1.386       .  A
C780        S786   1.717       .  A
C780        C781   1.407       .  A
C781        C782   1.408       .  A
C781        H790   1.083       .  S
C782        C785   1.375       .  A
S783        C784   1.716       .  A
C784        C785   1.388       .  A
C785        H791   1.083       .  S
S786        C787   1.725       .  A
C787        C788   1.385       .  A
C788        H792   1.084       .  S
C793        S799   1.712       .  A
C793        C798   1.387       .  A
C793        C794   1.401       .  A
C794        C795   1.404   1_655  A
C794        H805   1.083       .  S
C795        C804   1.368       .  A
C795        C796   1.387       .  A
C796        S802   1.713       .  A
C796        C797   1.402   1_455  A
C797        C798   1.404       .  A
C797        H806   1.083       .  S
C798        C801   1.369       .  A
S799        C800   1.720       .  A
C800        C801   1.386       .  A
C801        H807   1.083       .  S
S802        C803   1.721       .  A
C803        C804   1.386       .  A
C804        H808   1.083       .  S
C809        S815   1.712       .  A
C809        C814   1.387       .  A
C809        C810   1.405       .  A
C810        C811   1.405       .  A
C810        H821   1.083       .  S
C811        C820   1.376       .  A
C811        C812   1.387       .  A
C812        S818   1.712       .  A
C812        C813   1.406       .  A
C813        C814   1.406       .  A
C813        H822   1.083       .  S
C814        C817   1.376       .  A
S815        C816   1.723       .  A
C816        C817   1.390       .  A
C817        H823   1.083       .  S
S818        C819   1.724       .  A
C819        C820   1.387       .  A
C820        H824   1.083       .  S
C825        S831   1.711       .  A
C825        C830   1.386       .  A
C825        C826   1.401       .  A
C826        C827   1.403       .  A
C826        H837   1.083       .  S
C827        C836   1.369       .  A
C827        C828   1.386       .  A
C828        S834   1.715       .  A
C828        C829   1.405       .  A
C829        C830   1.407       .  A
C829        H838   1.083       .  S
C830        C833   1.372       .  A
S831        C832   1.722       .  A
C832        C833   1.390       .  A
C833        H839   1.083       .  S
S834        C835   1.725       .  A
C835        C836   1.388       .  A
C836        H840   1.083       .  S
C841        S847   1.716       .  A
C841        C846   1.387       .  A
C841        C842   1.406       .  A
C842        C843   1.407       .  A
C842        H853   1.084       .  S
C843        C852   1.373       .  A
C843        C844   1.387       .  A
C844        S850   1.714       .  A
C844        C845   1.403       .  A
C845        C846   1.405       .  A
C845        H854   1.084       .  S
C846        C849   1.371       .  A
S847        C848   1.723       .  A
C848        C849   1.387       .  A
C849        H855   1.084       .  S
S850        C851   1.721       .  A
C851        C852   1.390       .  A
C852        H856   1.084       .  S
C857        S863   1.710       .  A
C857        C862   1.387       .  A
C857        C858   1.402       .  A
C858        C859   1.404       .  A
C858        H869   1.084       .  S
C859        C868   1.371       .  A
C859        C860   1.388       .  A
C860        S866   1.706       .  A
C860        C861   1.400       .  A
C861        C862   1.401       .  A
C861        H870   1.084       .  S
C862        C865   1.368       .  A
S863        C864   1.722       .  A
C864        C865   1.384       .  A
C865        H871   1.084       .  S
S866        C867   1.718       .  A
C867        C868   1.384       .  A
C868        H872   1.084       .  S
C873        S879   1.714       .  A
C873        C878   1.386       .  A
C873        C874   1.406       .  A
C874        C875   1.407       .  A
C874        H885   1.082       .  S
C875        C884   1.373       .  A
C875        C876   1.387       .  A
C876        S882   1.703       .  A
C876        C877   1.396       .  A
C877        C878   1.398       .  A
C877        H886   1.083       .  S
C878        C881   1.364       .  A
S879        C880   1.726       .  A
C880        C881   1.384       .  A
C881        H887   1.083       .  S
S882        C883   1.719       .  A
C883        C884   1.390       .  A
C884        H888   1.083       .  S
C889        S895   1.710       .  A
C889        C894   1.387       .  A
C889        C890   1.403       .  A
C890        C891   1.404       .  A
C890        H901   1.083       .  S
C891        C900   1.373       .  A
C891        C892   1.387       .  A
C892        S898   1.710       .  A
C892        C893   1.403       .  A
C893        C894   1.403       .  A
C893        H902   1.083       .  S
C894        C897   1.372       .  A
S895        C896   1.722       .  A
C896        C897   1.386       .  A
C897        H903   1.083       .  S
S898        C899   1.721       .  A
C899        C900   1.387       .  A
C900        H904   1.083       .  S
C905        S911   1.708       .  A
C905        C910   1.388       .  A
C905        C906   1.399       .  A
C906        C907   1.401       .  A
C906        H917   1.084       .  S
C907        C916   1.365   1_455  A
C907        C908   1.387       .  A
C908        S914   1.711   1_455  A
C908        C909   1.402       .  A
C909        C910   1.403       .  A
C909        H918   1.083       .  S
C910        C913   1.369       .  A
S911        C912   1.718       .  A
C912        C913   1.384       .  A
C913        H919   1.084       .  S
S914        C915   1.721       .  A
C915        C916   1.385       .  A
C916        H920   1.084       .  S
C921        S927   1.712       .  A
C921        C926   1.386       .  A
C921        C922   1.402       .  A
C922        C923   1.404       .  A
C922        H933   1.083       .  S
C923        C932   1.370       .  A
C923        C924   1.387       .  A
C924        S930   1.712       .  A
C924        C925   1.402       .  A
C925        C926   1.404       .  A
C925        H934   1.084       .  S
C926        C929   1.369       .  A
S927        C928   1.723       .  A
C928        C929   1.388       .  A
C929        H935   1.084       .  S
S930        C931   1.720       .  A
C931        C932   1.385       .  A
C932        H936   1.084       .  S
C937        S943   1.712       .  A
C937        C942   1.387       .  A
C937        C938   1.404       .  A
C938        C939   1.405       .  A
C938        H949   1.083       .  S
C939        C948   1.375       .  A
C939        C940   1.387       .  A
C940        S946   1.711       .  A
C940        C941   1.405       .  A
C941        C942   1.406       .  A
C941        H950   1.083       .  S
C942        C945   1.375       .  A
S943        C944   1.722       .  A
C944        C945   1.389       .  A
C945        H951   1.083       .  S
S946        C947   1.722       .  A
C947        C948   1.387       .  A
C948        H952   1.083       .  S
C953        S959   1.698       .  A
C953        C958   1.387       .  A
C953        C954   1.400       .  A
C954        C955   1.399       .  A
C954        H965   1.084       .  S
C955        C964   1.373       .  A
C955        C956   1.387       .  A
C956        S962   1.707       .  A
C956        C957   1.406       .  A
C957        C958   1.405       .  A
C957        H966   1.084       .  S
C958        C961   1.380       .  A
S959        C960   1.724       .  A
C960        C961   1.389       .  A
C961        H967   1.083       .  S
S962        C963   1.726       .  A
C963        C964   1.385       .  A
C964        H968   1.084       .  S
C969        S975   1.716       .  A
C969        C974   1.386       .  A
C969        C970   1.405   1_455  A
C970        C971   1.407       .  A
C970        H981   1.083       .  S
C971        C980   1.373       .  A
C971        C972   1.387       .  A
C972        S978   1.713       .  A
C972        C973   1.403       .  A
C973        C974   1.405   1_655  A
C973        H982   1.083       .  S
C974        C977   1.371       .  A
S975        C976   1.724       .  A
C976        C977   1.388       .  A
C977        H983   1.083       .  S
S978        C979   1.721       .  A
C979        C980   1.389       .  A
C980        H984   1.083       .  S
C985        S991   1.706       .  A
C985        C990   1.388       .  A
C985        C986   1.397       .  A
C986        C987   1.400       .  A
C986        H997   1.083       .  S
C987        C996   1.364       .  A
C987        C988   1.388       .  A
C988        S994   1.707       .  A
C988        C989   1.398       .  A
C989        C990   1.401       .  A
C989        H998   1.083       .  S
C990        C993   1.364       .  A
S991        C992   1.717       .  A
C992        C993   1.384       .  A
C993        H999   1.083       .  S
S994        C995   1.717       .  A
C995        C996   1.381       .  A
C996       H1000   1.083       .  S
C1001      S1007   1.700       .  A
C1001      C1006   1.388       .  A
C1001      C1002   1.399       .  A
C1002      C1003   1.399       .  A
C1002      H1013   1.084       .  S
C1003      C1012   1.369       .  A
C1003      C1004   1.388       .  A
C1004      S1010   1.703       .  A
C1004      C1005   1.402       .  A
C1005      C1006   1.401       .  A
C1005      H1014   1.084       .  S
C1006      C1009   1.373       .  A
S1007      C1008   1.723       .  A
C1008      C1009   1.385       .  A
C1009      H1015   1.083       .  S
S1010      C1011   1.723       .  A
C1011      C1012   1.383       .  A
C1012      H1016   1.083       .  S
C1017      S1023   1.714   1_565  A
C1017      C1022   1.387   1_556  A
C1017      C1018   1.405       .  A
C1018      C1019   1.407       .  A
C1018      H1029   1.082       .  S
C1019      C1028   1.374       .  A
C1019      C1020   1.388       .  A
C1020      S1026   1.706       .  A
C1020      C1021   1.399   1_556  A
C1021      C1022   1.401       .  A
C1021      H1030   1.083       .  S
C1022      C1025   1.367       .  A
S1023      C1024   1.723   1_556  A
C1024      C1025   1.385   1_545  A
C1025      H1031   1.083       .  S
S1026      C1027   1.718       .  A
C1027      C1028   1.387       .  A
C1028      H1032   1.083       .  S
C1033      S1039   1.712       .  A
C1033      C1038   1.387       .  A
C1033      C1034   1.404       .  A
C1034      C1035   1.405       .  A
C1034      H1045   1.083       .  S
C1035      C1044   1.373       .  A
C1035      C1036   1.387       .  A
C1036      S1042   1.712       .  A
C1036      C1037   1.403       .  A
C1037      C1038   1.404       .  A
C1037      H1046   1.083       .  S
C1038      C1041   1.372       .  A
S1039      C1040   1.722       .  A
C1040      C1041   1.387       .  A
C1041      H1047   1.083       .  S
S1042      C1043   1.721       .  A
C1043      C1044   1.387       .  A
C1044      H1048   1.083       .  S
C1049      S1055   1.714       .  A
C1049      C1054   1.386   1_565  A
C1049      C1050   1.404       .  A
C1050      C1051   1.405   1_556  A
C1050      H1061   1.083       .  S
C1051      C1060   1.371       .  A
C1051      C1052   1.387       .  A
C1052      S1058   1.710       .  A
C1052      C1053   1.401   1_565  A
C1053      C1054   1.403   1_554  A
C1053      H1062   1.083       .  S
C1054      C1057   1.369       .  A
S1055      C1056   1.724   1_565  A
C1056      C1057   1.388       .  A
C1057      H1063   1.083       .  S
S1058      C1059   1.723       .  A
C1059      C1060   1.389       .  A
C1060      H1064   1.083       .  S
C1065      S1071   1.713   1_565  A
C1065      C1070   1.387       .  A
C1065      C1066   1.402       .  A
C1066      C1067   1.404       .  A
C1066      H1077   1.083       .  S
C1067      C1076   1.370       .  A
C1067      C1068   1.387       .  A
C1068      S1074   1.715       .  A
C1068      C1069   1.404       .  A
C1069      C1070   1.406       .  A
C1069      H1078   1.083       .  S
C1070      C1073   1.372   1_565  A
S1071      C1072   1.721       .  A
C1072      C1073   1.388       .  A
C1073      H1079   1.083       .  S
S1074      C1075   1.723       .  A
C1075      C1076   1.387       .  A
C1076      H1080   1.083       .  S
C1081      S1087   1.713       .  A
C1081      C1086   1.387   1_554  A
C1081      C1082   1.406       .  A
C1082      C1083   1.407       .  A
C1082      H1093   1.084       .  S
C1083      C1092   1.376       .  A
C1083      C1084   1.388       .  A
C1084      S1090   1.702       .  A
C1084      C1085   1.398   1_554  A
C1085      C1086   1.399       .  A
C1085      H1094   1.084       .  S
C1086      C1089   1.368       .  A
S1087      C1088   1.725   1_554  A
C1088      C1089   1.385       .  A
C1089      H1095   1.084       .  S
S1090      C1091   1.717       .  A
C1091      C1092   1.387       .  A
C1092      H1096   1.083       .  S
C1097      S1103   1.711   1_455  A
C1097      C1102   1.387       .  A
C1097      C1098   1.404       .  A
C1098      C1099   1.405       .  A
C1098      H1109   1.083       .  S
C1099      C1108   1.373       .  A
C1099      C1100   1.388       .  A
C1100      S1106   1.705       .  A
C1100      C1101   1.399       .  A
C1101      C1102   1.400       .  A
C1101      H1110   1.084   1_556  S
C1102      C1105   1.367   1_456  A
S1103      C1104   1.723   1_556  A
C1104      C1105   1.384       .  A
C1105      H1111   1.084       .  S
S1106      C1107   1.717       .  A
C1107      C1108   1.385       .  A
C1108      H1112   1.083       .  S
C1113      S1119   1.723       .  A
C1113      C1118   1.385       .  A
C1113      C1114   1.411       .  A
C1114      C1115   1.413       .  A
C1114      H1125   1.083       .  S
C1115      C1124   1.379       .  A
C1115      C1116   1.388       .  A
C1116      S1122   1.697       .  A
C1116      C1117   1.391       .  A
C1117      C1118   1.394       .  A
C1117      H1126   1.084       .  S
C1118      C1121   1.358       .  A
S1119      C1120   1.728       .  A
C1120      C1121   1.383       .  A
C1121      H1127   1.084       .  S
S1122      C1123   1.714       .  A
C1123      C1124   1.391       .  A
C1124      H1128   1.083       .  S
C1129      S1135   1.712       .  A
C1129      C1134   1.387       .  A
C1129      C1130   1.403   1_455  A
C1130      C1131   1.405       .  A
C1130      H1141   1.083       .  S
C1131      C1140   1.371       .  A
C1131      C1132   1.387   1_655  A
C1132      S1138   1.710   1_455  A
C1132      C1133   1.401       .  A
C1133      C1134   1.403       .  A
C1133      H1142   1.083       .  S
C1134      C1137   1.370       .  A
S1135      C1136   1.721       .  A
C1136      C1137   1.385       .  A
C1137      H1143   1.083       .  S
S1138      C1139   1.722       .  A
C1139      C1140   1.389       .  A
C1140      H1144   1.083       .  S
C1145      S1151   1.708       .  A
C1145      C1150   1.387       .  A
C1145      C1146   1.401       .  A
C1146      C1147   1.402       .  A
C1146      H1157   1.083       .  S
C1147      C1156   1.370       .  A
C1147      C1148   1.387       .  A
C1148      S1154   1.711       .  A
C1148      C1149   1.404       .  A
C1149      C1150   1.405       .  A
C1149      H1158   1.083       .  S
C1150      C1153   1.373       .  A
S1151      C1152   1.720       .  A
C1152      C1153   1.387       .  A
C1153      H1159   1.083       .  S
S1154      C1155   1.722       .  A
C1155      C1156   1.385       .  A
C1156      H1160   1.083       .  S
C1161      S1167   1.712       .  A
C1161      C1166   1.387       .  A
C1161      C1162   1.404       .  A
C1162      C1163   1.405       .  A
C1162      H1173   1.083       .  S
C1163      C1172   1.373       .  A
C1163      C1164   1.388       .  A
C1164      S1170   1.706       .  A
C1164      C1165   1.400       .  A
C1165      C1166   1.401       .  A
C1165      H1174   1.083       .  S
C1166      C1169   1.368       .  A
S1167      C1168   1.722       .  A
C1168      C1169   1.384       .  A
C1169      H1175   1.083       .  S
S1170      C1171   1.718       .  A
C1171      C1172   1.386       .  A
C1172      H1176   1.083       .  S
C1177      S1183   1.711       .  A
C1177      C1182   1.387       .  A
C1177      C1178   1.403       .  A
C1178      C1179   1.405       .  A
C1178      H1189   1.083       .  S
C1179      C1188   1.371       .  A
C1179      C1180   1.387       .  A
C1180      S1186   1.711       .  A
C1180      C1181   1.402       .  A
C1181      C1182   1.403       .  A
C1181      H1190   1.083       .  S
C1182      C1185   1.370       .  A
S1183      C1184   1.721       .  A
C1184      C1185   1.385       .  A
C1185      H1191   1.083       .  S
S1186      C1187   1.720       .  A
C1187      C1188   1.387       .  A
C1188      H1192   1.083       .  S
C1193      S1199   1.714       .  A
C1193      C1198   1.387       .  A
C1193      C1194   1.404       .  A
C1194      C1195   1.406       .  A
C1194      H1205   1.084       .  S
C1195      C1204   1.373       .  A
C1195      C1196   1.388       .  A
C1196      S1202   1.703       .  A
C1196      C1197   1.396       .  A
C1197      C1198   1.398       .  A
C1197      H1206   1.084       .  S
C1198      C1201   1.362       .  A
S1199      C1200   1.723       .  A
C1200      C1201   1.383       .  A
C1201      H1207   1.084       .  S
S1202      C1203   1.717       .  A
C1203      C1204   1.386       .  A
C1204      H1208   1.084       .  S
C1209      S1215   1.711       .  A
C1209      C1214   1.386       .  A
C1209      C1210   1.402       .  A
C1210      C1211   1.404       .  A
C1210      H1221   1.083       .  S
C1211      C1220   1.371       .  A
C1211      C1212   1.386       .  A
C1212      S1218   1.712       .  A
C1212      C1213   1.404       .  A
C1213      C1214   1.405       .  A
C1213      H1222   1.083       .  S
C1214      C1217   1.372       .  A
S1215      C1216   1.723       .  A
C1216      C1217   1.389       .  A
C1217      H1223   1.083       .  S
S1218      C1219   1.724       .  A
C1219      C1220   1.388       .  A
C1220      H1224   1.083       .  S
C1225      S1231   1.711       .  A
C1225      C1230   1.387       .  A
C1225      C1226   1.399       .  A
C1226      C1227   1.402       .  A
C1226      H1237   1.083       .  S
C1227      C1236   1.365       .  A
C1227      C1228   1.387       .  A
C1228      S1234   1.714       .  A
C1228      C1229   1.402       .  A
C1229      C1230   1.405       .  A
C1229      H1238   1.083       .  S
C1230      C1233   1.368       .  A
S1231      C1232   1.719       .  A
C1232      C1233   1.387       .  A
C1233      H1239   1.084       .  S
S1234      C1235   1.720       .  A
C1235      C1236   1.384       .  A
C1236      H1240   1.084       .  S
C1241      S1247   1.698       .  A
C1241      C1246   1.388       .  A
C1241      C1242   1.394       .  A
C1242      C1243   1.395       .  A
C1242      H1253   1.084       .  S
C1243      C1252   1.363       .  A
C1243      C1244   1.386       .  A
C1244      S1250   1.718       .  A
C1244      C1245   1.410       .  A
C1245      C1246   1.410       .  A
C1245      H1254   1.084       .  S
C1246      C1249   1.379       .  A
S1247      C1248   1.716       .  A
C1248      C1249   1.389       .  A
C1249      H1255   1.083       .  S
S1250      C1251   1.728       .  A
C1251      C1252   1.383       .  A
C1252      H1256   1.084       .  S
C1257      S1263   1.708       .  A
C1257      C1262   1.387       .  A
C1257      C1258   1.400       .  A
C1258      C1259   1.402       .  A
C1258      H1269   1.083       .  S
C1259      C1268   1.368       .  A
C1259      C1260   1.388       .  A
C1260      S1266   1.708       .  A
C1260      C1261   1.401       .  A
C1261      C1262   1.403       .  A
C1261      H1270   1.083       .  S
C1262      C1265   1.369       .  A
S1263      C1264   1.720       .  A
C1264      C1265   1.385       .  A
C1265      H1271   1.083       .  S
S1266      C1267   1.719       .  A
C1267      C1268   1.383       .  A
C1268      H1272   1.083       .  S
C1273      S1279   1.713       .  A
C1273      C1278   1.387       .  A
C1273      C1274   1.405       .  A
C1274      C1275   1.406       .  A
C1274      H1285   1.084       .  S
C1275      C1284   1.375       .  A
C1275      C1276   1.387       .  A
C1276      S1282   1.711       .  A
C1276      C1277   1.404       .  A
C1277      C1278   1.405       .  A
C1277      H1286   1.084       .  S
C1278      C1281   1.374       .  A
S1279      C1280   1.722       .  A
C1280      C1281   1.388       .  A
C1281      H1287   1.084       .  S
S1282      C1283   1.722       .  A
C1283      C1284   1.388       .  A
C1284      H1288   1.084       .  S
C1289      S1295   1.700       .  A
C1289      C1294   1.387       .  A
C1289      C1290   1.396       .  A
C1290      C1291   1.397       .  A
C1290      H1301   1.083       .  S
C1291      C1300   1.365       .  A
C1291      C1292   1.386       .  A
C1292      S1298   1.720       .  A
C1292      C1293   1.410       .  A
C1293      C1294   1.411       .  A
C1293      H1302   1.082       .  S
C1294      C1297   1.381       .  A
S1295      C1296   1.720       .  A
C1296      C1297   1.392       .  A
C1297      H1303   1.083       .  S
S1298      C1299   1.727       .  A
C1299      C1300   1.384       .  A
C1300      H1304   1.083       .  S
C1305      S1311   1.710       .  A
C1305      C1310   1.387       .  A
C1305      C1306   1.400       .  A
C1306      C1307   1.403       .  A
C1306      H1317   1.084       .  S
C1307      C1316   1.367       .  A
C1307      C1308   1.387       .  A
C1308      S1314   1.712       .  A
C1308      C1309   1.401       .  A
C1309      C1310   1.403       .  A
C1309      H1318   1.084       .  S
C1310      C1313   1.367       .  A
S1311      C1312   1.720       .  A
C1312      C1313   1.386       .  A
C1313      H1319   1.084       .  S
S1314      C1315   1.719       .  A
C1315      C1316   1.385       .  A
C1316      H1320   1.084       .  S
C1321      S1327   1.710       .  A
C1321      C1326   1.387       .  A
C1321      C1322   1.404       .  A
C1322      C1323   1.404       .  A
C1322      H1333   1.084       .  S
C1323      C1332   1.373       .  A
C1323      C1324   1.387       .  A
C1324      S1330   1.709       .  A
C1324      C1325   1.402       .  A
C1325      C1326   1.403       .  A
C1325      H1334   1.084       .  S
C1326      C1329   1.372       .  A
S1327      C1328   1.723       .  A
C1328      C1329   1.387       .  A
C1329      H1335   1.084       .  S
S1330      C1331   1.720       .  A
C1331      C1332   1.386       .  A
C1332      H1336   1.084       .  S
C1337      S1343   1.712       .  A
C1337      C1342   1.387       .  A
C1337      C1338   1.404       .  A
C1338      C1339   1.405       .  A
C1338      H1349   1.083       .  S
C1339      C1348   1.373       .  A
C1339      C1340   1.388       .  A
C1340      S1346   1.705       .  A
C1340      C1341   1.399       .  A
C1341      C1342   1.400       .  A
C1341      H1350   1.083       .  S
C1342      C1345   1.368       .  A
S1343      C1344   1.724       .  A
C1344      C1345   1.385       .  A
C1345      H1351   1.083       .  S
S1346      C1347   1.718       .  A
C1347      C1348   1.385       .  A
C1348      H1352   1.083       .  S
C1353      S1359   1.710       .  A
C1353      C1358   1.387       .  A
C1353      C1354   1.401       .  A
C1354      C1355   1.403       .  A
C1354      H1365   1.083       .  S
C1355      C1364   1.370       .  A
C1355      C1356   1.387       .  A
C1356      S1362   1.712       .  A
C1356      C1357   1.404       .  A
C1357      C1358   1.405       .  A
C1357      H1366   1.083       .  S
C1358      C1361   1.372       .  A
S1359      C1360   1.720       .  A
C1360      C1361   1.387       .  A
C1361      H1367   1.084       .  S
S1362      C1363   1.722       .  A
C1363      C1364   1.385       .  A
C1364      H1368   1.083       .  S
C1369      S1375   1.712       .  A
C1369      C1374   1.387       .  A
C1369      C1370   1.402       .  A
C1370      C1371   1.404       .  A
C1370      H1381   1.083       .  S
C1371      C1380   1.369       .  A
C1371      C1372   1.387       .  A
C1372      S1378   1.709       .  A
C1372      C1373   1.400       .  A
C1373      C1374   1.402       .  A
C1373      H1382   1.084       .  S
C1374      C1377   1.366       .  A
S1375      C1376   1.720       .  A
C1376      C1377   1.384       .  A
C1377      H1383   1.084       .  S
S1378      C1379   1.719       .  A
C1379      C1380   1.385       .  A
C1380      H1384   1.083       .  S
C1385      S1391   1.710       .  A
C1385      C1390   1.387       .  A
C1385      C1386   1.400       .  A
C1386      C1387   1.402       .  A
C1386      H1397   1.083       .  S
C1387      C1396   1.365       .  A
C1387      C1388   1.387       .  A
C1388      S1394   1.711       .  A
C1388      C1389   1.399       .  A
C1389      C1390   1.402       .  A
C1389      H1398   1.083       .  S
C1390      C1393   1.365       .  A
S1391      C1392   1.720   1_565  A
C1392      C1393   1.385   1_545  A
C1393      H1399   1.083       .  S
S1394      C1395   1.718       .  A
C1395      C1396   1.384       .  A
C1396      H1400   1.084       .  S
C1401      S1407   1.715       .  A
C1401      C1406   1.386       .  A
C1401      C1402   1.408       .  A
C1402      C1403   1.408       .  A
C1402      H1413   1.083       .  S
C1403      C1412   1.379       .  A
C1403      C1404   1.388       .  A
C1404      S1410   1.699       .  A
C1404      C1405   1.397       .  A
C1405      C1406   1.397       .  A
C1405      H1414   1.083       .  S
C1406      C1409   1.366       .  A
S1407      C1408   1.726       .  A
C1408      C1409   1.385       .  A
C1409      H1415   1.083       .  S
S1410      C1411   1.717       .  A
C1411      C1412   1.388       .  A
C1412      H1416   1.083       .  S
C1417      S1423   1.709       .  A
C1417      C1422   1.387       .  A
C1417      C1418   1.400       .  A
C1418      C1419   1.402       .  A
C1418      H1429   1.083       .  S
C1419      C1428   1.368       .  A
C1419      C1420   1.386       .  A
C1420      S1426   1.714       .  A
C1420      C1421   1.405       .  A
C1421      C1422   1.407       .  A
C1421      H1430   1.083       .  S
C1422      C1425   1.372       .  A
S1423      C1424   1.722       .  A
C1424      C1425   1.390       .  A
C1425      H1431   1.083       .  S
S1426      C1427   1.725       .  A
C1427      C1428   1.387       .  A
C1428      H1432   1.083       .  S
C1433      S1439   1.707       .  A
C1433      C1438   1.388       .  A
C1433      C1434   1.401       .  A
C1434      C1435   1.402       .  A
C1434      H1445   1.084       .  S
C1435      C1444   1.371       .  A
C1435      C1436   1.386       .  A
C1436      S1442   1.714       .  A
C1436      C1437   1.406       .  A
C1437      C1438   1.407       .  A
C1437      H1446   1.083       .  S
C1438      C1441   1.376       .  A
S1439      C1440   1.719       .  A
C1440      C1441   1.387       .  A
C1441      H1447   1.083       .  S
S1442      C1443   1.725       .  A
C1443      C1444   1.388       .  A
C1444      H1448   1.083       .  S
C1449      S1455   1.707       .  A
C1449      C1454   1.388       .  A
C1449      C1450   1.400       .  A
C1450      C1451   1.401       .  A
C1450      H1461   1.084       .  S
C1451      C1460   1.367       .  A
C1451      C1452   1.388       .  A
C1452      S1458   1.708       .  A
C1452      C1453   1.399       .  A
C1453      C1454   1.401       .  A
C1453      H1462   1.084       .  S
C1454      C1457   1.367       .  A
S1455      C1456   1.718       .  A
C1456      C1457   1.382       .  A
C1457      H1463   1.084       .  S
S1458      C1459   1.719       .  A
C1459      C1460   1.384       .  A
C1460      H1464   1.084       .  S
C1465      S1471   1.708       .  A
C1465      C1470   1.387       .  A
C1465      C1466   1.399   1_655  A
C1466      C1467   1.401   1_556  A
C1466      H1477   1.083       .  S
C1467      C1476   1.366       .  A
C1467      C1468   1.386   1_455  A
C1468      S1474   1.712       .  A
C1468      C1469   1.403       .  A
C1469      C1470   1.405   1_554  A
C1469      H1478   1.083       .  S
C1470      C1473   1.370       .  A
S1471      C1472   1.721       .  A
C1472      C1473   1.388       .  A
C1473      H1479   1.083       .  S
S1474      C1475   1.723   1_655  A
C1475      C1476   1.386       .  A
C1476      H1480   1.083       .  S
C1481      S1487   1.708   1_556  A
C1481      C1486   1.388       .  A
C1481      C1482   1.400       .  A
C1482      C1483   1.402       .  A
C1482      H1493   1.083       .  S
C1483      C1492   1.368       .  A
C1483      C1484   1.387       .  A
C1484      S1490   1.712       .  A
C1484      C1485   1.402       .  A
C1485      C1486   1.404       .  A
C1485      H1494   1.083       .  S
C1486      C1489   1.370   1_556  A
S1487      C1488   1.719       .  A
C1488      C1489   1.385       .  A
C1489      H1495   1.083       .  S
S1490      C1491   1.720       .  A
C1491      C1492   1.385       .  A
C1492      H1496   1.083       .  S
C1497      S1503   1.708       .  A
C1497      C1502   1.387       .  A
C1497      C1498   1.400       .  A
C1498      C1499   1.402       .  A
C1498      H1509   1.083       .  S
C1499      C1508   1.369       .  A
C1499      C1500   1.386       .  A
C1500      S1506   1.716       .  A
C1500      C1501   1.406       .  A
C1501      C1502   1.408       .  A
C1501      H1510   1.083       .  S
C1502      C1505   1.375       .  A
S1503      C1504   1.722       .  A
C1504      C1505   1.391       .  A
C1505      H1511   1.083       .  S
S1506      C1507   1.726       .  A
C1507      C1508   1.387       .  A
C1508      H1512   1.083       .  S
C1513      S1519   1.716   1_655  A
C1513      C1518   1.387       .  A
C1513      C1514   1.405       .  A
C1514      C1515   1.407       .  A
C1514      H1525   1.083       .  S
C1515      C1524   1.373       .  A
C1515      C1516   1.387       .  A
C1516      S1522   1.711       .  A
C1516      C1517   1.401       .  A
C1517      C1518   1.403       .  A
C1517      H1526   1.083       .  S
C1518      C1521   1.368   1_655  A
S1519      C1520   1.723       .  A
C1520      C1521   1.386       .  A
C1521      H1527   1.083       .  S
S1522      C1523   1.720       .  A
C1523      C1524   1.388       .  A
C1524      H1528   1.083       .  S
C1529      S1535   1.714       .  A
C1529      C1534   1.387       .  A
C1529      C1530   1.406       .  A
C1530      C1531   1.407       .  A
C1530      H1541   1.083       .  S
C1531      C1540   1.376       .  A
C1531      C1532   1.387       .  A
C1532      S1538   1.709       .  A
C1532      C1533   1.402       .  A
C1533      C1534   1.403       .  A
C1533      H1542   1.083       .  S
C1534      C1537   1.373   1_554  A
S1535      C1536   1.724   1_654  A
C1536      C1537   1.386   1_455  A
C1537      H1543   1.083   1_655  S
S1538      C1539   1.720       .  A
C1539      C1540   1.389       .  A
C1540      H1544   1.083       .  S
C1545      S1551   1.713       .  A
C1545      C1550   1.387       .  A
C1545      C1546   1.404       .  A
C1546      C1547   1.405       .  A
C1546      H1557   1.083       .  S
C1547      C1556   1.373       .  A
C1547      C1548   1.387       .  A
C1548      S1554   1.713       .  A
C1548      C1549   1.403       .  A
C1549      C1550   1.405       .  A
C1549      H1558   1.083       .  S
C1550      C1553   1.372       .  A
S1551      C1552   1.722       .  A
C1552      C1553   1.388       .  A
C1553      H1559   1.083       .  S
S1554      C1555   1.721       .  A
C1555      C1556   1.387       .  A
C1556      H1560   1.083       .  S
C1561      S1567   1.714       .  A
C1561      C1566   1.387       .  A
C1561      C1562   1.406       .  A
C1562      C1563   1.407       .  A
C1562      H1573   1.083       .  S
C1563      C1572   1.375       .  A
C1563      C1564   1.387       .  A
C1564      S1570   1.709       .  A
C1564      C1565   1.401       .  A
C1565      C1566   1.402       .  A
C1565      H1574   1.083       .  S
C1566      C1569   1.371       .  A
S1567      C1568   1.723       .  A
C1568      C1569   1.385       .  A
C1569      H1575   1.083       .  S
S1570      C1571   1.720       .  A
C1571      C1572   1.389       .  A
C1572      H1576   1.083       .  S
C1577      S1583   1.707       .  A
C1577      C1582   1.387   1_545  A
C1577      C1578   1.404       .  A
C1578      C1579   1.403   1_545  A
C1578      H1589   1.084       .  S
C1579      C1588   1.374       .  A
C1579      C1580   1.387       .  A
C1580      S1586   1.707       .  A
C1580      C1581   1.403       .  A
C1581      C1582   1.403       .  A
C1581      H1590   1.084       .  S
C1582      C1585   1.374       .  A
S1583      C1584   1.725       .  A
C1584      C1585   1.387   1_545  A
C1585      H1591   1.083       .  S
S1586      C1587   1.725       .  A
C1587      C1588   1.387       .  A
C1588      H1592   1.083       .  S
C1593      S1599   1.710       .  A
C1593      C1598   1.387       .  A
C1593      C1594   1.402       .  A
C1594      C1595   1.403       .  A
C1594      H1605   1.083       .  S
C1595      C1604   1.370       .  A
C1595      C1596   1.388       .  A
C1596      S1602   1.707       .  A
C1596      C1597   1.400       .  A
C1597      C1598   1.401       .  A
C1597      H1606   1.083       .  S
C1598      C1601   1.367       .  A
S1599      C1600   1.721       .  A
C1600      C1601   1.385       .  A
C1601      H1607   1.084       .  S
S1602      C1603   1.719       .  A
C1603      C1604   1.384       .  A
C1604      H1608   1.083       .  S
C1609      S1615   1.713       .  A
C1609      C1614   1.387       .  A
C1609      C1610   1.403       .  A
C1610      C1611   1.405   1_565  A
C1610      H1621   1.083       .  S
C1611      C1620   1.371       .  A
C1611      C1612   1.387       .  A
C1612      S1618   1.714       .  A
C1612      C1613   1.403   1_545  A
C1613      C1614   1.405       .  A
C1613      H1622   1.083       .  S
C1614      C1617   1.370       .  A
S1615      C1616   1.721       .  A
C1616      C1617   1.386       .  A
C1617      H1623   1.084       .  S
S1618      C1619   1.722       .  A
C1619      C1620   1.387       .  A
C1620      H1624   1.083       .  S
C1625      S1631   1.710       .  A
C1625      C1630   1.387       .  A
C1625      C1626   1.402   1_565  A
C1626      C1627   1.404       .  A
C1626      H1637   1.083       .  S
C1627      C1636   1.371       .  A
C1627      C1628   1.387       .  A
C1628      S1634   1.711       .  A
C1628      C1629   1.402       .  A
C1629      C1630   1.404   1_545  A
C1629      H1638   1.083       .  S
C1630      C1633   1.371       .  A
S1631      C1632   1.721       .  A
C1632      C1633   1.386       .  A
C1633      H1639   1.083       .  S
S1634      C1635   1.721       .  A
C1635      C1636   1.385       .  A
C1636      H1640   1.083       .  S
C1641      S1647   1.712       .  A
C1641      C1646   1.386       .  A
C1641      C1642   1.403       .  A
C1642      C1643   1.405       .  A
C1642      H1653   1.083       .  S
C1643      C1652   1.372       .  A
C1643      C1644   1.386       .  A
C1644      S1650   1.712       .  A
C1644      C1645   1.403       .  A
C1645      C1646   1.405       .  A
C1645      H1654   1.083       .  S
C1646      C1649   1.372       .  A
S1647      C1648   1.724       .  A
C1648      C1649   1.389       .  A
C1649      H1655   1.083       .  S
S1650      C1651   1.724       .  A
C1651      C1652   1.389       .  A
C1652      H1656   1.083       .  S
