geometry optimzed in LAMMPS
_audit_creation_date              2020-12-01 
_audit_creation_method            'lammps2cif' 
_symmetry_space_group_name_H-M    'P1' 
_symmetry_Int_Tables_number       1 
_symmetry_cell_setting            triclinic 
loop_ 
_symmetry_equiv_pos_as_xyz 
  x,y,z 
_cell_length_a                    50.98318395 
_cell_length_b                    51.38715034419027 
_cell_length_c                    51.311710568360446 
_cell_angle_alpha                 90.1221151378004 
_cell_angle_beta                  89.98976954363829 
_cell_angle_gamma                 90.24377574104665 
loop_ 
_atom_site_label 
_atom_site_type_symbol 
_atom_site_fract_x 
_atom_site_fract_y 
_atom_site_fract_z 
_atom_site_charge 
In1        In  0.35715544  0.95214967  0.39923116     1.36900
C2          C  0.37650594  0.99313662  0.42480948     0.78200
O3          O  0.33721463  0.93775781  0.43557695    -0.60200
O4          O  0.31382492  0.94393807  0.40195931    -0.51100
C5          C  0.34849537  0.96404179  0.34921885     0.70900
O6          O  0.35690566  0.94220250  0.35638565    -0.46000
C7          C  0.39168117  0.91371526  0.40434983     0.75600
O8          O  0.39013244  0.97961134  0.40953089    -0.57900
O9          O  0.36730951  0.90954779  0.40327245    -0.48000
O10         O  0.35275046  0.98643128  0.42609854    -0.54300
C11         C  0.31461415  0.93729272  0.42559153     0.85800
O12         O  0.34414918  0.97966651  0.36758683    -0.56200
O13         O  0.39821863  0.93723319  0.40174667    -0.59500
In14       In  0.45077751  0.06999570  0.64003880     1.36900
C15         C  0.48388173  0.03418606  0.62252262     0.78200
O16         O  0.46111079  0.04680610  0.67502185    -0.60200
O17         O  0.42103704  0.05679963  0.66986025    -0.51100
C18         C  0.45934185  0.11934027  0.65441220     0.70900
O19         O  0.47593928  0.10644582  0.64152082    -0.46000
C20         C  0.42137973  0.07242311  0.59766292     0.75600
O21         O  0.49181653  0.05476678  0.63367334    -0.57900
O22         O  0.41304901  0.06313859  0.61883429    -0.48000
O23         O  0.45933624  0.03248234  0.61996157    -0.54300
C24         C  0.43782910  0.04448045  0.68293880     0.85800
O25         O  0.43895156  0.10683330  0.66030510    -0.56200
O26         O  0.44416845  0.08201674  0.59864661    -0.59500
In27       In  0.58831846  0.82548624  0.52900232     1.36900
C28         C  0.55884009  0.83511129  0.48721534     0.78200
O29         O  0.58338509  0.78240588  0.52330936    -0.60200
O30         O  0.56521650  0.79983485  0.55620821    -0.51100
C31         C  0.64025204  0.81860689  0.53101194     0.70900
O32         O  0.62761247  0.81934217  0.50990228    -0.46000
C33         C  0.57824801  0.87052044  0.55286981     0.75600
O34         O  0.58345132  0.83769251  0.48679678    -0.57900
O35         O  0.57220430  0.84878312  0.56256998    -0.48000
O36         O  0.54983759  0.82664951  0.50839143    -0.54300
C37         C  0.56870903  0.77947127  0.54288449     0.85800
O38         O  0.62627050  0.82084572  0.55116821    -0.56200
O39         O  0.59104841  0.86915846  0.53194066    -0.59500
In40       In  0.58853128  0.08883425  0.97355246     1.36900
C41         C  0.55602467  0.08669705  0.01387162     0.78200
O42         O  0.58791509  0.13224201  0.97434219    -0.60200
O43         O  0.56330825  0.11278232  0.94696628    -0.51100
C44         C  0.64040328  0.09243689  0.96851886     0.70900
O45         O  0.62911253  0.09330672  0.99046821    -0.46000
C46         C  0.58085986  0.04058431  0.95728105     0.75600
O47         O  0.58061161  0.08826320  0.01701008    -0.57900
O48         O  0.57722876  0.05996820  0.94254846    -0.48000
O49         O  0.54861155  0.08628008  0.99047338    -0.54300
C50         C  0.57011798  0.13405274  0.95740829     0.85800
O51         O  0.62511536  0.09013360  0.94929238    -0.56200
O52         O  0.58945496  0.04598671  0.97966951    -0.59500
In53       In  0.35003372  0.98234130  0.09450987     1.36900
C54         C  0.35679997  0.94343194  0.06073517     0.78200
O55         O  0.30638064  0.98866537  0.09077503    -0.60200
O56         O  0.33210009  0.01128265  0.06744663    -0.51100
C57         C  0.34103785  0.97038215  0.14448489     0.70900
O58         O  0.33828769  0.95425468  0.12616785    -0.46000
C59         C  0.39550293  0.00802421  0.09271065     0.75600
O60         O  0.36188465  0.94119676  0.08465965    -0.57900
O61         O  0.37399946  0.01924474  0.09697953    -0.48000
O62         O  0.34777884  0.96524363  0.05432154    -0.54300
C63         C  0.30877411  0.00533098  0.07290239     0.85800
O64         O  0.34724841  0.99302212  0.13719074    -0.56200
O65         O  0.39390505  0.98366150  0.09080819    -0.59500
In66       In  0.44791401  0.85671585  0.84829756     1.36900
C67         C  0.48884766  0.88472138  0.86525155     0.78200
O68         O  0.44838574  0.86236312  0.80483203    -0.60200
O69         O  0.42921576  0.89064687  0.82808395    -0.51100
C70         C  0.45412262  0.80591587  0.83956002     0.70900
O71         O  0.47258469  0.82046246  0.84712638    -0.46000
C72         C  0.41200010  0.85945057  0.88555493     0.75600
O73         O  0.48754116  0.87568757  0.84248628    -0.57900
O74         O  0.40688615  0.86480492  0.86209235    -0.48000
O75         O  0.46981503  0.87863453  0.87958389    -0.54300
C76         C  0.43659909  0.88382950  0.80564993     0.85800
O77         O  0.43257989  0.81735220  0.83643169    -0.56200
O78         O  0.43488461  0.85105092  0.88949510    -0.59500
In79       In  0.89658739  0.08486298  0.99763981     1.36900
C80         C  0.92857919  0.07133839  0.95936298     0.78200
O81         O  0.90448870  0.12676051  0.98713617    -0.60200
O82         O  0.92502225  0.11041781  0.01919789    -0.51100
C83         C  0.84523120  0.09503084  0.99704584     0.70900
O84         O  0.85699851  0.08561064  0.97752173    -0.46000
C85         C  0.89837309  0.04288249  0.02786982     0.75600
O86         O  0.90401086  0.07200850  0.95603045    -0.57900
O87         O  0.90056478  0.06559308  0.03705584    -0.48000
O88         O  0.93612824  0.07681534  0.98207958    -0.54300
C89         C  0.92199218  0.12970725  0.00431796     0.85800
O90         O  0.85984962  0.09979283  0.01630262    -0.56200
O91         O  0.89454401  0.04187617  0.00367748    -0.59500
In92       In  0.02561105  0.86577625  0.13667301     1.36900
C93         C  0.99542396  0.90594432  0.12549986     0.78200
O94         O  0.01637562  0.88064889  0.17640044    -0.60200
O95         O  0.05641029  0.88027288  0.16483058    -0.51100
C96         C  0.01373230  0.81577368  0.14548179     0.70900
O97         O  0.99661359  0.83296827  0.14166987    -0.46000
C98         C  0.04994199  0.86635764  0.09094121     0.75600
O99         O  0.98608700  0.88322896  0.12816299    -0.57900
O100        O  0.06207788  0.87013603  0.11209957    -0.48000
O101        O  0.01992687  0.90768766  0.12786522    -0.54300
C102        C  0.03960028  0.88753679  0.18139783     0.85800
O103        O  0.03702523  0.82423586  0.14564065    -0.56200
O104        O  0.02607354  0.86046559  0.09347225    -0.59500
In105      In  0.15120130  0.99113582  0.89714040     1.36900
C106        C  0.14181847  0.95516834  0.93316154     0.78200
O107        O  0.19395827  0.00119128  0.90101243    -0.60200
O108        O  0.16696426  0.01743387  0.92796997    -0.51100
C109        C  0.15834915  0.97362436  0.84896871     0.70900
O110        O  0.15050839  0.95924251  0.86723049    -0.46000
C111        C  0.10999853  0.02133905  0.89029400     0.75600
O112        O  0.16201291  0.95450290  0.91897920    -0.57900
O113        O  0.13286180  0.03047266  0.89256098    -0.48000
O114        O  0.12661023  0.97384320  0.92853866    -0.54300
C115        C  0.19050429  0.01503743  0.92101428     0.85800
O116        O  0.16332223  0.99677713  0.85554213    -0.56200
O117        O  0.10851248  0.99684786  0.89034269    -0.59500
In118      In  0.00013160  0.56252393  0.11963737     1.36900
C119        C  0.03539978  0.52991955  0.10007329     0.78200
O120        O  0.00964543  0.55173291  0.16085129    -0.60200
O121        O  0.97276396  0.53947940  0.14588827    -0.51100
C122        C  0.01171124  0.61191772  0.13137100     0.70900
O123        O  0.02863965  0.59422617  0.13009091    -0.46000
C124        C  0.96857992  0.56158914  0.07839883     0.75600
O125        O  0.03554166  0.55380117  0.09471671    -0.57900
O126        O  0.96014674  0.55720728  0.10113829    -0.48000
O127        O  0.01776089  0.52304288  0.11577446    -0.54300
C128        C  0.98890128  0.53881984  0.16458121     0.85800
O129        O  0.98847224  0.60428327  0.12741025    -0.56200
O130        O  0.99242416  0.56776125  0.07720388    -0.59500
In131      In  0.08935518  0.31490392  0.99009364     1.36900
C132        C  0.05107408  0.33008163  0.95789273     0.78200
O133        O  0.08485203  0.27232884  0.98018153    -0.60200
O134        O  0.06632536  0.28682571  0.01429429    -0.51100
C135        C  0.14036628  0.31093784  0.97803508     0.70900
O136        O  0.12297083  0.31709859  0.96173641    -0.46000
C137        C  0.08985369  0.35253946  0.02553506     0.75600
O138        O  0.07501199  0.33263144  0.95210294    -0.57900
O139        O  0.08996438  0.32883633  0.03161687    -0.48000
O140        O  0.04703186  0.31980257  0.97973201    -0.54300
C141        C  0.06961820  0.26785426  0.99906995     0.85800
O142        O  0.13161542  0.30581125  0.00046937    -0.56200
O143        O  0.09002978  0.35693640  0.00140348    -0.59500
In144      In  0.83275458  0.43901559  0.90436504     1.36900
C145        C  0.84983049  0.47650099  0.93639372     0.78200
O146        O  0.78867878  0.43258615  0.90540826    -0.60200
O147        O  0.81121662  0.42428923  0.93905768    -0.51100
C148        C  0.82758771  0.45438780  0.85478503     0.70900
O149        O  0.83371245  0.46961580  0.87307745    -0.46000
C150        C  0.86756666  0.40027908  0.90483718     0.75600
O151        O  0.82703569  0.47654197  0.92692320    -0.57900
O152        O  0.84399909  0.39710163  0.91157002    -0.48000
O153        O  0.86402431  0.45806205  0.92859233    -0.54300
C154        C  0.78878158  0.42540446  0.92891222     0.85800
O155        O  0.82338434  0.43124549  0.86185662    -0.56200
O156        O  0.87281640  0.42273080  0.89641410    -0.59500
In157      In  0.39902297  0.31623992  0.97064961     1.36900
C158        C  0.42568129  0.33522497  0.01155147     0.78200
O159        O  0.43473697  0.29582733  0.95594364    -0.60200
O160        O  0.40087532  0.27283407  0.96333458    -0.51100
C161        C  0.34787107  0.30795414  0.97996993     0.70900
O162        O  0.36536677  0.30543921  0.99708871    -0.46000
C163        C  0.40618665  0.35151131  0.93339476     0.75600
O164        O  0.41071275  0.34878668  0.99773394    -0.57900
O165        O  0.41009677  0.32758823  0.92973554    -0.48000
O166        O  0.42603394  0.31148325  0.00547181    -0.54300
C167        C  0.42463326  0.27340650  0.95638673     0.85800
O168        O  0.35654080  0.31386021  0.95773692    -0.56200
O169        O  0.39687631  0.35711476  0.95544075    -0.59500
In170      In  0.61746542  0.45064823  0.10632823     1.36900
C171        C  0.61219879  0.49014855  0.07334090     0.78200
O172        O  0.65821000  0.43338435  0.10588777    -0.60200
O173        O  0.63538874  0.43188518  0.07138723    -0.51100
C174        C  0.62730519  0.46662163  0.15488747     0.70900
O175        O  0.62120836  0.48185446  0.13671772    -0.46000
C176        C  0.57373105  0.42195296  0.10831584     0.75600
O177        O  0.63301685  0.48622496  0.08589886    -0.57900
O178        O  0.59550433  0.41266015  0.10137937    -0.48000
O179        O  0.59374695  0.47459246  0.07852672    -0.54300
C180        C  0.65711759  0.42738493  0.08206712     0.85800
O181        O  0.62854937  0.44297433  0.14830334    -0.56200
O182        O  0.57465730  0.44537956  0.11543474    -0.59500
In183      In  0.52226910  0.56142839  0.85487282     1.36900
C184        C  0.48631704  0.52407784  0.86195912     0.78200
O185        O  0.52469754  0.55537019  0.81177716    -0.60200
O186        O  0.55415226  0.53828289  0.83543170    -0.51100
C187        C  0.51812009  0.61208557  0.84534275     0.70900
O188        O  0.49824603  0.59730790  0.84671653    -0.46000
C189        C  0.53996367  0.56669771  0.90302797     0.75600
O190        O  0.48049275  0.54614517  0.85287095    -0.57900
O191        O  0.55482429  0.56013011  0.88442182    -0.48000
O192        O  0.51023905  0.52136720  0.86736451    -0.54300
C193        C  0.54451684  0.54086845  0.81293549     0.85800
O194        O  0.53983785  0.60074210  0.84794877    -0.56200
O195        O  0.51648041  0.57096485  0.89676515    -0.59500
In196      In  0.52129438  0.36736114  0.64623371     1.36900
C197        C  0.48107014  0.39998438  0.64018904     0.78200
O198        O  0.53016294  0.37096141  0.68921676    -0.60200
O199        O  0.54866395  0.39748950  0.66362827    -0.51100
C200        C  0.51590694  0.31630645  0.65398254     0.70900
O201        O  0.49644057  0.33100944  0.65035176    -0.46000
C202        C  0.54288437  0.36553310  0.59913017     0.75600
O203        O  0.48133592  0.38315425  0.65801871    -0.57900
O204        O  0.55514160  0.37429070  0.61873848    -0.48000
O205        O  0.50074305  0.39944049  0.62549458    -0.54300
C206        C  0.54461216  0.39072790  0.68687769     0.85800
O207        O  0.53781736  0.32782379  0.65419476    -0.56200
O208        O  0.52034727  0.35661534  0.60400668    -0.59500
In209      In  0.39197137  0.60670764  0.53506560     1.36900
C210        C  0.41951244  0.59977430  0.49116623     0.78200
O211        O  0.39827218  0.64844567  0.54633193    -0.60200
O212        O  0.42853397  0.62148986  0.55486840    -0.51100
C213        C  0.34081475  0.61728763  0.53350382     0.70900
O214        O  0.35387178  0.61174711  0.51333817    -0.46000
C215        C  0.39118967  0.56168797  0.56050459     0.75600
O216        O  0.40999304  0.62149257  0.49734831    -0.57900
O217        O  0.40155443  0.58186616  0.57030526    -0.48000
O218        O  0.41322438  0.58153217  0.50622593    -0.54300
C219        C  0.42119897  0.64492122  0.55476809     0.85800
O220        O  0.35418980  0.61867292  0.55411548    -0.56200
O221        O  0.38044296  0.56508744  0.53872028    -0.59500
In222      In  0.62804285  0.49364460  0.40673915     1.36900
C223        C  0.62567957  0.45227027  0.43759872     0.78200
O224        O  0.63998729  0.51334844  0.44374053    -0.60200
O225        O  0.66579828  0.51645835  0.41146682    -0.51100
C226        C  0.64116846  0.48161616  0.35788483     0.70900
O227        O  0.63959173  0.46505125  0.37583941    -0.46000
C228        C  0.58053202  0.51481656  0.40386837     0.75600
O229        O  0.64711061  0.46054049  0.42853613    -0.57900
O230        O  0.60032408  0.52754946  0.41153370    -0.48000
O231        O  0.60570448  0.46422924  0.42967010    -0.54300
C232        C  0.66198356  0.52081451  0.43539318     0.85800
O233        O  0.63713523  0.50477496  0.36504459    -0.56200
O234        O  0.58541464  0.49199798  0.39646325    -0.59500
In235      In  0.95525597  0.36734337  0.34653802     1.36900
C236        C  0.99233882  0.39692645  0.36825947     0.78200
O237        O  0.97117696  0.38332294  0.30893209    -0.60200
O238        O  0.93043893  0.38736743  0.31645115    -0.51100
C239        C  0.95842624  0.31668141  0.33438549     0.70900
O240        O  0.97845018  0.33069159  0.33806685    -0.46000
C241        C  0.92108416  0.37255774  0.38564917     0.75600
O242        O  0.99219557  0.37246403  0.37060972    -0.57900
O243        O  0.91587759  0.37912438  0.36259244    -0.48000
O244        O  0.97394259  0.40583778  0.35462254    -0.54300
C245        C  0.94953634  0.39279271  0.30177906     0.85800
O246        O  0.93708513  0.32876069  0.33589897    -0.56200
O247        O  0.94326507  0.36223624  0.38848194    -0.59500
In248      In  0.08719527  0.59965169  0.48829749     1.36900
C249        C  0.06144558  0.58177768  0.53023585     0.78200
O250        O  0.08521900  0.64372280  0.49004844    -0.60200
O251        O  0.05511269  0.62305362  0.47028220    -0.51100
C252        C  0.13946224  0.60660720  0.48875000     0.70900
O253        O  0.12535376  0.61120578  0.50844065    -0.46000
C254        C  0.07570109  0.56377907  0.45235268     0.75600
O255        O  0.08326823  0.57265674  0.52325952    -0.57900
O256        O  0.07683086  0.58774318  0.44730326    -0.48000
O257        O  0.05412513  0.60106067  0.51716052    -0.54300
C258        C  0.06374458  0.64480347  0.47784180     0.85800
O259        O  0.12686749  0.59884223  0.46912497    -0.56200
O260        O  0.08154463  0.55804908  0.47551918    -0.59500
In261      In  0.84157673  0.47736412  0.59939271     1.36900
C262        C  0.85524776  0.44089665  0.56477216     0.78200
O263        O  0.79755088  0.47511388  0.59625489    -0.60200
O264        O  0.81728831  0.50403876  0.57423168    -0.51100
C265        C  0.83327012  0.46500103  0.64962376     0.70900
O266        O  0.83257505  0.44857112  0.63136510    -0.46000
C267        C  0.88382094  0.50848951  0.59799218     0.75600
O268        O  0.86207165  0.44000995  0.58838734    -0.57900
O269        O  0.86102877  0.51696147  0.60224565    -0.48000
O270        O  0.84052634  0.45969830  0.55920280    -0.54300
C271        C  0.79577530  0.49311422  0.57971368     0.85800
O272        O  0.83803634  0.48794228  0.64227079    -0.56200
O273        O  0.88499529  0.48421987  0.59498725    -0.59500
In274      In  0.13800612  0.95517939  0.59627294     1.36900
C275        C  0.12327203  0.99485410  0.56619391     0.78200
O276        O  0.18167208  0.95083615  0.59266626    -0.60200
O277        O  0.15732894  0.93181500  0.56486533    -0.51100
C278        C  0.15093558  0.96691035  0.64532171     0.70900
O279        O  0.15139195  0.98336215  0.62717925    -0.46000
C280        C  0.09762380  0.92191588  0.59582271     0.75600
O281        O  0.11317067  0.99054584  0.58819821    -0.57900
O282        O  0.12106567  0.91458582  0.59787078    -0.48000
O283        O  0.14156687  0.97960622  0.56014719    -0.54300
C284        C  0.18032144  0.93700631  0.57239028     0.85800
O285        O  0.14377321  0.94443281  0.63842789    -0.56200
O286        O  0.09481571  0.94621654  0.59472497    -0.59500
In287      In  0.01926864  0.07005618  0.35625226     1.36900
C288        C  0.98429812  0.03908994  0.37937844     0.78200
O289        O  0.00505038  0.05861747  0.31628656    -0.60200
O290        O  0.04167183  0.04381994  0.32898997    -0.51100
C291        C  0.01470580  0.12032279  0.34378412     0.70900
O292        O  0.99501011  0.10623202  0.34884640    -0.46000
C293        C  0.05511577  0.06991445  0.39379133     0.75600
O294        O  0.98215231  0.06355606  0.37996511    -0.57900
O295        O  0.06070149  0.06555202  0.37025950    -0.48000
O296        O  0.00377875  0.03095080  0.36675670    -0.54300
C297        C  0.02415248  0.04376630  0.31163813     0.85800
O298        O  0.03627948  0.10853212  0.34446174    -0.56200
O299        O  0.03141894  0.07543657  0.39794163    -0.59500
In300      In  0.89450150  0.82888695  0.48667111     1.36900
C301        C  0.92232535  0.84684304  0.52694821     0.78200
O302        O  0.89975677  0.78636503  0.49599581    -0.60200
O303        O  0.92131160  0.80261252  0.46447766    -0.51100
C304        C  0.84232212  0.82351153  0.48645892     0.70900
O305        O  0.85564365  0.82262539  0.50714744    -0.46000
C306        C  0.90491375  0.86645008  0.45293787     0.75600
O307        O  0.89902470  0.85386170  0.52282973    -0.57900
O308        O  0.90475899  0.84277903  0.44650143    -0.48000
O309        O  0.93070404  0.82997469  0.51126645    -0.54300
C310        C  0.91694616  0.78301586  0.47857573     0.85800
O311        O  0.85573338  0.82612926  0.46606115    -0.56200
O312        O  0.89898703  0.87084651  0.47636559    -0.59500
C313        C  0.92546829  0.93346377  0.42690360     0.19300
C314        C  0.92034789  0.95942180  0.43380948    -0.18800
C315        C  0.93368549  0.97995210  0.42165796    -0.11000
C316        C  0.95267431  0.97479721  0.40244361     0.21600
C317        C  0.95762744  0.94884450  0.39550604    -0.20400
C318        C  0.94424209  0.92842300  0.40748709    -0.11200
C319        C  0.96877210  0.99527968  0.38967700    -0.15400
C320        C  0.96593546  0.02117229  0.39261608    -0.29200
C321        C  0.91292036  0.91226756  0.44214328    -0.03500
C322        C  0.91270149  0.88713226  0.43475930    -0.40000
H323        H  0.90627875  0.96381577  0.44900825     0.12700
H324        H  0.92941763  0.99958852  0.42786278     0.12400
H325        H  0.97235248  0.94424774  0.38099291     0.11800
H326        H  0.94954635  0.90880638  0.40208055     0.12000
H327        H  0.98429270  0.98838981  0.37689677     0.14800
H328        H  0.95056416  0.02935099  0.40465468     0.13500
H329        H  0.90458219  0.91746270  0.46094320     0.11200
H330        H  0.91963328  0.88122915  0.41568246     0.13200
C331        C  0.11110254  0.03402086  0.50348311     0.19300
C332        C  0.11841044  0.02888652  0.47762954    -0.18800
C333        C  0.10530344  0.04057831  0.45687886    -0.11000
C334        C  0.08459390  0.05801601  0.46150045     0.21600
C335        C  0.07807918  0.06415238  0.48737921    -0.20400
C336        C  0.09129253  0.05247231  0.50820800    -0.11200
C337        C  0.06757272  0.06758000  0.44004733    -0.15400
C338        C  0.07457446  0.06706379  0.41475639    -0.29200
C339        C  0.12360407  0.01841459  0.52447422    -0.03500
C340        C  0.11334416  0.01511437  0.54843705    -0.40000
H341        H  0.13360186  0.01481668  0.47336987     0.12700
H342        H  0.11066805  0.03471701  0.43737412     0.12400
H343        H  0.06223905  0.07754817  0.49151316     0.11800
H344        H  0.08554250  0.05763400  0.52779974     0.12000
H345        H  0.04776748  0.07348278  0.44516322     0.14800
H346        H  0.09442417  0.06221013  0.40901546     0.13500
H347        H  0.14066019  0.00696051  0.51907848     0.11200
H348        H  0.09591302  0.02550801  0.55445095     0.13200
C349        C  0.98461948  0.86523310  0.56513982     0.19300
C350        C  0.00927466  0.85351018  0.56813346    -0.18800
C351        C  0.03077161  0.86775616  0.57741761    -0.11000
C352        C  0.02806736  0.89425192  0.58387334     0.21600
C353        C  0.00305247  0.90550366  0.58239900    -0.20400
C354        C  0.98154185  0.89123159  0.57319040    -0.11200
C355        C  0.05085852  0.91158494  0.58961869    -0.15400
C356        C  0.07551822  0.90337082  0.59396618    -0.29200
C357        C  0.96404899  0.85075756  0.55040860    -0.03500
C358        C  0.93907665  0.85864503  0.54726778    -0.40000
H359        H  0.01224336  0.83352112  0.56209499     0.12700
H360        H  0.04955628  0.85815084  0.57809070     0.12400
H361        H  0.00033972  0.92581897  0.58733233     0.11800
H362        H  0.96305481  0.90121910  0.57112993     0.12000
H363        H  0.04728894  0.93241869  0.58912914     0.14800
H364        H  0.08006136  0.88284986  0.59517338     0.13500
H365        H  0.97047770  0.83356829  0.53983100     0.11200
H366        H  0.93134208  0.87508588  0.55800794     0.13200
C367        C  0.97170237  0.73449742  0.46194417     0.19300
C368        C  0.96216855  0.70917255  0.46611031    -0.18800
C369        C  0.97942873  0.68818143  0.46737832    -0.11000
C370        C  0.00658867  0.69193119  0.46463896     0.21600
C371        C  0.01614847  0.71717385  0.45977032    -0.20400
C372        C  0.99878562  0.73820944  0.45820221    -0.11200
C373        C  0.02386248  0.66874954  0.46627755    -0.15400
C374        C  0.04921551  0.66931976  0.47370677    -0.29200
C375        C  0.95401813  0.75740547  0.46176740    -0.03500
C376        C  0.93177736  0.75858731  0.47594500    -0.40000
H377        H  0.94136988  0.70544172  0.46823397     0.12700
H378        H  0.97151950  0.66889400  0.47078116     0.12400
H379        H  0.03688975  0.72068701  0.45686420     0.11800
H380        H  0.00656972  0.75751147  0.45458683     0.12000
H381        H  0.01458280  0.64993274  0.46303034     0.14800
H382        H  0.05873307  0.68757191  0.47874589     0.13500
H383        H  0.96072863  0.77470401  0.45154294     0.11200
H384        H  0.92568342  0.74223393  0.48786995     0.13200
C385        C  0.95426266  0.53309773  0.58315234     0.19300
C386        C  0.97804624  0.52066048  0.57718603    -0.18800
C387        C  0.00006933  0.53497999  0.56926403    -0.11000
C388        C  0.99883962  0.56223441  0.56708469     0.21600
C389        C  0.97535835  0.57475266  0.57384956    -0.20400
C390        C  0.95334904  0.56045180  0.58180190    -0.11200
C391        C  0.01992894  0.57778698  0.55427399    -0.15400
C392        C  0.04466226  0.56943359  0.55026849    -0.29200
C393        C  0.93070426  0.51661730  0.58874101    -0.03500
C394        C  0.90701609  0.52575949  0.59602382    -0.40000
H395        H  0.97937913  0.49964096  0.57783524     0.12700
H396        H  0.01746634  0.52441802  0.56361055     0.12400
H397        H  0.97372272  0.59567620  0.57206187     0.11800
H398        H  0.93556191  0.57105128  0.58584985     0.12000
H399        H  0.01401210  0.59613151  0.54560654     0.14800
H400        H  0.05163454  0.55171204  0.55929625     0.13500
H401        H  0.93274792  0.49578158  0.58569110     0.11200
H402        H  0.90395466  0.54626959  0.59967346     0.13200
C403        C  0.98370877  0.24572289  0.32994789     0.19300
C404        C  0.00840720  0.23442752  0.33397679    -0.18800
C405        C  0.01116571  0.20744968  0.33634555    -0.11000
C406        C  0.98918941  0.19083452  0.33434860     0.21600
C407        C  0.96456563  0.20205652  0.32964123    -0.20400
C408        C  0.96178945  0.22908245  0.32732072    -0.11200
C409        C  0.99081357  0.16202790  0.33825010    -0.15400
C410        C  0.01339665  0.14848788  0.33803942    -0.29200
C411        C  0.98187486  0.27477848  0.33020360    -0.03500
C412        C  0.95926835  0.28826069  0.32985489    -0.40000
H413        H  0.02567784  0.24662552  0.33610122     0.12700
H414        H  0.03048044  0.19999596  0.34052139     0.12400
H415        H  0.94726298  0.18983541  0.32799878     0.11800
H416        H  0.94236031  0.23657668  0.32385079     0.12000
H417        H  0.97257523  0.15151436  0.34155172     0.14800
H418        H  0.03187556  0.15811154  0.33395417     0.13500
H419        H  0.00009030  0.28562513  0.33244110     0.11200
H420        H  0.94055668  0.27843063  0.32796667     0.13200
C421        C  0.02741679  0.45931645  0.39191545     0.19300
C422        C  0.02730952  0.48528792  0.38344080    -0.18800
C423        C  0.03961711  0.50488294  0.39799184    -0.11000
C424        C  0.05251092  0.49888455  0.42149521     0.21600
C425        C  0.05298683  0.47283406  0.42969860    -0.20400
C426        C  0.04060460  0.45325771  0.41519481    -0.11200
C427        C  0.06411972  0.51907261  0.43900664    -0.15400
C428        C  0.06719979  0.54435716  0.43281932    -0.29200
C429        C  0.01159457  0.43988480  0.37710269    -0.03500
C430        C  0.01179908  0.41396686  0.38114464    -0.40000
H431        H  0.01706567  0.49059428  0.36573170     0.12700
H432        H  0.03818504  0.52462412  0.39100177     0.12400
H433        H  0.06252433  0.46762639  0.44782603     0.11800
H434        H  0.04076850  0.43371070  0.42285711     0.12000
H435        H  0.06974020  0.51285474  0.45845897     0.14800
H436        H  0.06241638  0.55148751  0.41355675     0.13500
H437        H  0.99817247  0.44758217  0.36259194     0.11200
H438        H  0.02546493  0.40511447  0.39460454     0.13200
C439        C  0.87068509  0.40861859  0.49868144     0.19300
C440        C  0.85676600  0.40349754  0.47561260    -0.18800
C441        C  0.86913659  0.39179670  0.45423407    -0.11000
C442        C  0.89594364  0.38539026  0.45535541     0.21600
C443        C  0.90960227  0.38979901  0.47873713    -0.20400
C444        C  0.89721370  0.40138021  0.50010956    -0.11200
C445        C  0.91083437  0.37523795  0.43251561    -0.15400
C446        C  0.90310067  0.37794505  0.40755835    -0.29200
C447        C  0.85783037  0.42369684  0.51987988    -0.03500
C448        C  0.86509958  0.42234000  0.54507978    -0.40000
H449        H  0.83631011  0.40888096  0.47401776     0.12700
H450        H  0.85763957  0.38810325  0.43691231     0.12400
H451        H  0.93024395  0.38511075  0.48019174     0.11800
H452        H  0.90880300  0.40561781  0.51727657     0.12000
H453        H  0.93027094  0.36748413  0.43626875     0.14800
H454        H  0.88442034  0.38673896  0.40287092     0.13500
H455        H  0.84226864  0.43698520  0.51434847     0.11200
H456        H  0.87965163  0.40829189  0.55125296     0.13200
C457        C  0.74527309  0.52191232  0.53128030     0.19300
C458        C  0.74770885  0.53750045  0.50888431    -0.18800
C459        C  0.72636934  0.54134327  0.49214872    -0.11000
C460        C  0.70202016  0.52961544  0.49752097     0.21600
C461        C  0.69911538  0.51542428  0.52069541    -0.20400
C462        C  0.72041718  0.51150420  0.53736554    -0.11200
C463        C  0.67969215  0.52983686  0.47888943    -0.15400
C464        C  0.68262522  0.53116058  0.45281154    -0.29200
C465        C  0.76933401  0.51654686  0.54698324    -0.03500
C466        C  0.77061266  0.49968311  0.56705031    -0.40000
H467        H  0.76643099  0.54621100  0.50390958     0.12700
H468        H  0.72914620  0.55308173  0.47488560     0.12400
H469        H  0.68047047  0.50639323  0.52544269     0.11800
H470        H  0.71717239  0.49994451  0.55462035     0.12000
H471        H  0.66063507  0.52424414  0.48663885     0.14800
H472        H  0.70161529  0.53543463  0.44426942     0.13500
H473        H  0.78733986  0.52613086  0.54086219     0.11200
H474        H  0.75344860  0.48906770  0.57353352     0.13200
C475        C  0.26783194  0.61676345  0.51218024     0.19300
C476        C  0.25487005  0.61735114  0.48803090    -0.18800
C477        C  0.22742016  0.61756671  0.48665425    -0.11000
C478        C  0.21211659  0.61659373  0.50951727     0.21600
C479        C  0.22509609  0.61599910  0.53365819    -0.20400
C480        C  0.25254961  0.61601409  0.53504177    -0.11200
C481        C  0.18276162  0.61598348  0.50920592    -0.15400
C482        C  0.16837861  0.60941452  0.48814535    -0.29200
C483        C  0.29713080  0.61586571  0.51247687    -0.03500
C484        C  0.31203929  0.62087092  0.53361284    -0.40000
H485        H  0.26605211  0.61783585  0.47008972     0.12700
H486        H  0.21847213  0.61871496  0.46760453     0.12400
H487        H  0.21392459  0.61513349  0.55159082     0.11800
H488        H  0.26152657  0.61484746  0.55407592     0.12000
H489        H  0.17260861  0.61969159  0.52746265     0.14800
H490        H  0.17789751  0.60454046  0.46990850     0.13500
H491        H  0.30689191  0.61067513  0.49437645     0.11200
H492        H  0.30313127  0.62672998  0.55186511     0.13200
C493        C  0.51987633  0.55437097  0.42431281     0.19300
C494        C  0.51507287  0.57993101  0.43271451    -0.18800
C495        C  0.49098977  0.58667297  0.44390578    -0.11000
C496        C  0.47109847  0.56785419  0.44700278     0.21600
C497        C  0.47543004  0.54261693  0.43750276    -0.20400
C498        C  0.49946075  0.53588202  0.42627215    -0.11200
C499        C  0.44749498  0.57260868  0.46334470    -0.15400
C500        C  0.43819913  0.59633981  0.46944396    -0.29200
C501        C  0.54716963  0.54704917  0.41691727    -0.03500
C502        C  0.55340613  0.52462407  0.40490895    -0.40000
H503        H  0.53045613  0.59450973  0.43168319     0.12700
H504        H  0.48874182  0.60617415  0.45150219     0.12400
H505        H  0.46055559  0.52766645  0.43988515     0.11800
H506        H  0.50227563  0.51581495  0.42067994     0.12000
H507        H  0.43836347  0.55563785  0.47222912     0.14800
H508        H  0.44593212  0.61366079  0.46008492     0.13500
H509        H  0.56294499  0.55987262  0.42328734     0.11200
H510        H  0.53819210  0.51175951  0.39757890     0.13200
C511        C  0.41553928  0.50328490  0.59958708     0.19300
C512        C  0.42084785  0.49618960  0.62546661    -0.18800
C513        C  0.43343675  0.47261581  0.63104105    -0.11000
C514        C  0.44120498  0.45595219  0.61068064     0.21600
C515        C  0.43516385  0.46272504  0.58494464    -0.20400
C516        C  0.42235254  0.48597882  0.57942188    -0.11200
C517        C  0.45876724  0.43344845  0.61490754    -0.15400
C518        C  0.46010283  0.41944832  0.63698472    -0.29200
C519        C  0.40661280  0.53010776  0.59351209    -0.03500
C520        C  0.39296171  0.53543490  0.57180620    -0.40000
H521        H  0.41615743  0.50936293  0.64128493     0.12700
H522        H  0.43843954  0.46827150  0.65105581     0.12400
H523        H  0.44134893  0.45043638  0.56890983     0.11800
H524        H  0.41942923  0.49107963  0.55917979     0.12000
H525        H  0.47174488  0.42842073  0.59885703     0.14800
H526        H  0.44644592  0.42275807  0.65285722     0.13500
H527        H  0.41341525  0.54593943  0.60588468     0.11200
H528        H  0.38507776  0.51958022  0.56013256     0.13200
C529        C  0.59664049  0.40779570  0.48998317     0.19300
C530        C  0.57204233  0.39616298  0.49380186    -0.18800
C531        C  0.56521609  0.38563642  0.51792602    -0.11000
C532        C  0.58304498  0.38633488  0.53889859     0.21600
C533        C  0.60820285  0.39677111  0.53462912    -0.20400
C534        C  0.61495804  0.40751418  0.51048527    -0.11200
C535        C  0.57519173  0.37951624  0.56604573    -0.15400
C536        C  0.55291415  0.36680121  0.57219560    -0.29200
C537        C  0.60067138  0.42333455  0.46601021    -0.03500
C538        C  0.62412528  0.43151615  0.45727081    -0.40000
H539        H  0.55749439  0.39639327  0.47840350     0.12700
H540        H  0.54543436  0.37841616  0.52020381     0.12400
H541        H  0.62226234  0.39777692  0.55042810     0.11800
H542        H  0.63389218  0.41689445  0.50856999     0.12000
H543        H  0.58750539  0.38677851  0.58177182     0.14800
H544        H  0.54045590  0.35860527  0.55715352     0.13500
H545        H  0.58308417  0.42982293  0.45597555     0.11200
H546        H  0.64221182  0.42459994  0.46592061     0.13200
C547        C  0.56793021  0.44829199  0.72937907     0.19300
C548        C  0.56875195  0.47504781  0.72388723    -0.18800
C549        C  0.56967751  0.49345413  0.74396436    -0.11000
C550        C  0.56988516  0.48547327  0.77014978     0.21600
C551        C  0.57082518  0.45873349  0.77567375    -0.20400
C552        C  0.56975431  0.44027034  0.75555432    -0.11200
C553        C  0.56735728  0.50426532  0.79208834    -0.15400
C554        C  0.55404298  0.52671674  0.78985475    -0.29200
C555        C  0.56397368  0.42984478  0.70722463    -0.03500
C556        C  0.55424624  0.40555587  0.70972316    -0.40000
H557        H  0.56778297  0.48181862  0.70392404     0.12700
H558        H  0.56982976  0.51387322  0.73888733     0.12400
H559        H  0.57134243  0.45206975  0.79569433     0.11800
H560        H  0.57001563  0.41988151  0.76066754     0.12000
H561        H  0.57308810  0.49772324  0.81140009     0.14800
H562        H  0.54617622  0.53262116  0.77114723     0.13500
H563        H  0.56641631  0.43763900  0.68768866     0.11200
H564        H  0.55016069  0.39752541  0.72881972     0.13200
C565        C  0.64247983  0.46900721  0.22888621     0.19300
C566        C  0.64772620  0.45003604  0.24779725    -0.18800
C567        C  0.64884970  0.45652306  0.27426121    -0.11000
C568        C  0.64499683  0.48241181  0.28254380     0.21600
C569        C  0.64087354  0.50155912  0.26353252    -0.20400
C570        C  0.63958098  0.49504246  0.23708812    -0.11200
C571        C  0.64366618  0.49027222  0.31055988    -0.15400
C572        C  0.64637225  0.47377541  0.33071381    -0.29200
C573        C  0.63925621  0.46044791  0.20122530    -0.03500
C574        C  0.63205482  0.47621851  0.18159427    -0.40000
H575        H  0.65029124  0.42987426  0.24215044     0.12700
H576        H  0.65221398  0.44092442  0.28786781     0.12400
H577        H  0.63800929  0.52167081  0.26919708     0.11800
H578        H  0.63593532  0.51059319  0.22349361     0.12000
H579        H  0.63890829  0.51044391  0.31480032     0.14800
H580        H  0.65085694  0.45346086  0.32760399     0.13500
H581        H  0.64210545  0.43991824  0.19695359     0.11200
H582        H  0.62888459  0.49677768  0.18477411     0.13200
C583        C  0.57561466  0.55103483  0.96680307     0.19300
C584        C  0.60075309  0.54270471  0.97404153    -0.18800
C585        C  0.60536718  0.53270632  0.99894490    -0.11000
C586        C  0.58477589  0.53074291  0.01712127     0.21600
C587        C  0.56000312  0.54028997  0.01036436    -0.20400
C588        C  0.55541755  0.55040155  0.98556481    -0.11200
C589        C  0.58728122  0.51547813  0.04148085    -0.15400
C590        C  0.61024878  0.51031809  0.05312206    -0.29200
C591        C  0.57036136  0.55656751  0.93883349    -0.03500
C592        C  0.54838538  0.56813310  0.93038230    -0.40000
H593        H  0.61658610  0.54273216  0.95996054     0.12700
H594        H  0.62460801  0.52500387  0.00316150     0.12400
H595        H  0.54377378  0.53875488  0.02391491     0.11800
H596        H  0.53556985  0.55598118  0.98089044     0.12000
H597        H  0.56945613  0.50681906  0.04932649     0.14800
H598        H  0.62821156  0.51976166  0.04676427     0.13500
H599        H  0.58401698  0.54874977  0.92457256     0.11200
H600        H  0.53464420  0.57665758  0.94402085     0.13200
C601        C  0.52283089  0.36970948  0.08941138     0.19300
C602        C  0.52406466  0.34337767  0.08221770    -0.18800
C603        C  0.50332110  0.33156418  0.06879020    -0.11000
C604        C  0.48081985  0.34577928  0.06223947     0.21600
C605        C  0.47854319  0.37145908  0.07164268    -0.20400
C606        C  0.49933251  0.38331468  0.08494974    -0.11200
C607        C  0.46120947  0.33361026  0.04433227    -0.15400
C608        C  0.44201740  0.34688070  0.03225478    -0.29200
C609        C  0.54748230  0.38290653  0.09787355    -0.03500
C610        C  0.54871883  0.40751887  0.10676723    -0.40000
H611        H  0.54173050  0.33228199  0.08570757     0.12700
H612        H  0.50546905  0.31159128  0.06234140     0.12400
H613        H  0.46122605  0.38294526  0.06817018     0.11800
H614        H  0.49719258  0.40354491  0.09025203     0.12000
H615        H  0.46394495  0.31323868  0.03926760     0.14800
H616        H  0.43923142  0.36745481  0.03580676     0.13500
H617        H  0.56574381  0.37257402  0.09453844     0.11200
H618        H  0.53106828  0.41828697  0.11124740     0.13200
C619        C  0.45592642  0.45800715  0.88154849     0.19300
C620        C  0.46439774  0.43211126  0.87981999    -0.18800
C621        C  0.44962406  0.41192562  0.89074494    -0.11000
C622        C  0.42604274  0.41724757  0.90394292     0.21600
C623        C  0.41724294  0.44307402  0.90518509    -0.20400
C624        C  0.43188084  0.46326409  0.89392078    -0.11200
C625        C  0.41217134  0.39691692  0.91930257    -0.15400
C626        C  0.41397959  0.37130809  0.91412278    -0.29200
C627        C  0.47416095  0.47905225  0.87315478    -0.03500
C628        C  0.46668914  0.50330508  0.86663968    -0.40000
H629        H  0.48300177  0.42756455  0.87070704     0.12700
H630        H  0.45754028  0.39244271  0.89004160     0.12400
H631        H  0.39937216  0.44773668  0.91559484     0.11800
H632        H  0.42501716  0.48302936  0.89620125     0.12000
H633        H  0.40143110  0.40323223  0.93648260     0.14800
H634        H  0.42361936  0.36458998  0.89651447     0.13500
H635        H  0.49494595  0.47440051  0.87285816     0.11200
H636        H  0.44606098  0.50818695  0.86520344     0.13200
C637        C  0.70154894  0.41138387  0.02373317     0.19300
C638        C  0.69691375  0.40793197  0.99693377    -0.18800
C639        C  0.71758192  0.40850314  0.97899459    -0.11000
C640        C  0.74346155  0.41256512  0.98760192     0.21600
C641        C  0.74820610  0.41481945  0.01445492    -0.20400
C642        C  0.72759402  0.41436398  0.03234671    -0.11200
C643        C  0.76618598  0.41507093  0.96965891    -0.15400
C644        C  0.76469368  0.41973787  0.94386802    -0.29200
C645        C  0.67856832  0.41437825  0.04135457    -0.03500
C646        C  0.67992703  0.41765122  0.06739273    -0.40000
H647        H  0.67706463  0.40545604  0.98972378     0.12700
H648        H  0.71311013  0.40597527  0.95856235     0.12400
H649        H  0.76799916  0.41775232  0.02165538     0.11800
H650        H  0.73231994  0.41723550  0.05264831     0.12000
H651        H  0.78548466  0.41475588  0.97868251     0.14800
H652        H  0.74596280  0.42120827  0.93399252     0.13500
H653        H  0.65951613  0.41611826  0.03199247     0.11200
H654        H  0.69823640  0.41564022  0.07788291     0.13200
C655        C  0.82807217  0.46707937  0.72528406     0.19300
C656        C  0.83811707  0.48396500  0.74443478    -0.18800
C657        C  0.83601569  0.47796064  0.77097273    -0.11000
C658        C  0.82341787  0.45493407  0.77919256     0.21600
C659        C  0.81312739  0.43814879  0.76005177    -0.20400
C660        C  0.81530038  0.44413305  0.73347280    -0.11200
C661        C  0.82178754  0.44705459  0.80722506    -0.15400
C662        C  0.82640726  0.46330808  0.82740540    -0.29200
C663        C  0.83110726  0.47439743  0.69720290    -0.03500
C664        C  0.82899987  0.45743248  0.67719252    -0.40000
H665        H  0.84803999  0.50176904  0.73881623     0.12700
H666        H  0.84487745  0.49126059  0.78476897     0.12400
H667        H  0.80332322  0.42028858  0.76568927     0.11800
H668        H  0.80663439  0.43081504  0.71955523     0.12000
H669        H  0.81699399  0.42686800  0.81140245     0.14800
H670        H  0.83032282  0.48375231  0.82407023     0.13500
H671        H  0.83635548  0.49444930  0.69288816     0.11200
H672        H  0.82491965  0.43706556  0.68086824     0.13200
C673        C  0.27178148  0.30758477  0.97390485     0.19300
C674        C  0.25418182  0.31686263  0.95504211    -0.18800
C675        C  0.22700100  0.31576193  0.95906864    -0.11000
C676        C  0.21654304  0.30526037  0.98223906     0.21600
C677        C  0.23416961  0.29592188  0.00106942    -0.20400
C678        C  0.26135158  0.29688857  0.99697437    -0.11200
C679        C  0.18770358  0.30431892  0.98809697    -0.15400
C680        C  0.16859547  0.31053046  0.97101411    -0.29200
C681        C  0.30060233  0.30943528  0.96846182    -0.03500
C682        C  0.31964667  0.30470436  0.98606319    -0.40000
H683        H  0.26150645  0.32524289  0.93709071     0.12700
H684        H  0.21453523  0.32358108  0.94401646     0.12400
H685        H  0.22686717  0.28777555  0.01913078     0.11800
H686        H  0.27386765  0.28906448  0.01199044     0.12000
H687        H  0.18191813  0.29838978  0.00759798     0.14800
H688        H  0.17336756  0.31603396  0.95122384     0.13500
H689        H  0.30643965  0.31566748  0.94907009     0.11200
H690        H  0.31482593  0.29924527  0.00585781     0.13200
C691        C  0.93556379  0.36839569  0.91146269     0.19300
C692        C  0.96068379  0.37454432  0.90198336    -0.18800
C693        C  0.98312088  0.36339824  0.91288821    -0.11000
C694        C  0.98097346  0.34549836  0.93348548     0.21600
C695        C  0.95576835  0.33830716  0.94207449    -0.20400
C696        C  0.93331640  0.34961196  0.93128626    -0.11200
C697        C  0.00416783  0.33521240  0.94782183    -0.15400
C698        C  0.02947254  0.33888981  0.94088648    -0.29200
C699        C  0.91302346  0.38445400  0.90242598    -0.03500
C700        C  0.88768225  0.37995477  0.90845184    -0.40000
H701        H  0.96306495  0.38891533  0.88675697     0.12700
H702        H  0.00196896  0.36973637  0.90562287     0.12400
H703        H  0.95344014  0.32452421  0.95784785     0.11800
H704        H  0.91450449  0.34435592  0.93947942     0.12000
H705        H  0.00011295  0.32451696  0.96564216     0.14800
H706        H  0.03470327  0.34879729  0.92301854     0.13500
H707        H  0.91783435  0.40215803  0.89185711     0.11200
H708        H  0.88172590  0.36221403  0.91821430     0.13200
C709        C  0.96678800  0.44290232  0.24834803     0.19300
C710        C  0.98949148  0.45780694  0.24399925    -0.18800
C711        C  0.98969433  0.47796315  0.22574566    -0.11000
C712        C  0.96697084  0.48397498  0.21136910     0.21600
C713        C  0.94425827  0.46897223  0.21559348    -0.20400
C714        C  0.94411309  0.44862226  0.23378479    -0.11200
C715        C  0.96700905  0.50406655  0.19032665    -0.15400
C716        C  0.98535217  0.52293323  0.18832953    -0.29200
C717        C  0.96795077  0.42168348  0.26812239    -0.03500
C718        C  0.94682225  0.41036379  0.27917184    -0.40000
H719        H  0.00733570  0.45374553  0.25471779     0.07900
H720        H  0.00797475  0.48816701  0.22256039     0.12400
H721        H  0.92660466  0.47280357  0.20451776     0.11800
H722        H  0.92636390  0.43727853  0.23595918     0.12000
H723        H  0.95213803  0.50245060  0.17522777     0.14800
H724        H  0.99996485  0.52544208  0.20346747     0.13500
H725        H  0.98726203  0.41644907  0.27535376     0.11200
H726        H  0.92716186  0.41605627  0.27365982     0.13200
C727        C  0.06805324  0.46496326  0.08297556     0.19300
C728        C  0.06642707  0.44009419  0.09408605    -0.18800
C729        C  0.07528662  0.41828108  0.08055477    -0.11000
C730        C  0.08618186  0.42093485  0.05549205     0.21600
C731        C  0.08947823  0.44600494  0.04516390    -0.20400
C732        C  0.08044288  0.46782663  0.05863557    -0.11200
C733        C  0.09188015  0.39837788  0.03831779    -0.15400
C734        C  0.08860724  0.37333871  0.04513750    -0.29200
C735        C  0.05423661  0.48650988  0.09639249    -0.03500
C736        C  0.05363581  0.51131147  0.08815937    -0.40000
H737        H  0.05717389  0.43733989  0.11289785     0.12700
H738        H  0.07244313  0.39952687  0.08956811     0.12400
H739        H  0.09799397  0.44865593  0.02599242     0.11800
H740        H  0.08231213  0.48652656  0.04926012     0.12000
H741        H  0.09746645  0.40268133  0.01832199     0.14800
H742        H  0.08388998  0.36768735  0.06489918     0.13500
H743        H  0.04249967  0.48126171  0.11330574     0.11200
H744        H  0.06546304  0.51800333  0.07195724     0.13200
C745        C  0.91754243  0.53621799  0.02942044     0.19300
C746        C  0.89069423  0.52998060  0.02914754    -0.18800
C747        C  0.87917862  0.51846314  0.00712220    -0.11000
C748        C  0.89445092  0.51275328  0.98499500     0.21600
C749        C  0.92114817  0.51935285  0.98515324    -0.20400
C750        C  0.93259800  0.53092621  0.00702379    -0.11200
C751        C  0.88423069  0.49715065  0.96278938    -0.15400
C752        C  0.85881507  0.49570737  0.95592667    -0.29200
C753        C  0.92992212  0.54550957  0.05404952    -0.03500
C754        C  0.95292422  0.55838556  0.05449776    -0.40000
H755        H  0.87875657  0.53341558  0.04626160     0.12700
H756        H  0.85868960  0.51295723  0.00798910     0.12400
H757        H  0.93342443  0.51477196  0.96854336     0.11800
H758        H  0.95351585  0.53443264  0.00663330     0.12000
H759        H  0.89842485  0.48576619  0.95186052     0.14800
H760        H  0.84430304  0.50794445  0.96532932     0.13500
H761        H  0.92064703  0.54016505  0.07235674     0.11200
H762        H  0.96206732  0.56458862  0.03645005     0.13200
C763        C  0.16133926  0.96271644  0.72000331     0.19300
C764        C  0.15894485  0.94259634  0.73836380    -0.18800
C765        C  0.16111892  0.94764661  0.76508704    -0.11000
C766        C  0.16570175  0.97315648  0.77414431     0.21600
C767        C  0.16877309  0.99313596  0.75578706    -0.20400
C768        C  0.16664829  0.98808605  0.72910328    -0.11200
C769        C  0.16650435  0.98029823  0.80227936    -0.15400
C770        C  0.16052162  0.96409031  0.82197970    -0.29200
C771        C  0.15691622  0.95640422  0.69191545    -0.03500
C772        C  0.15790022  0.97385700  0.67236909    -0.40000
H773        H  0.15491302  0.92284642  0.73203056     0.12700
H774        H  0.15890873  0.93147121  0.77829782     0.12400
H775        H  0.17231903  0.01296543  0.76212918     0.11800
H776        H  0.16872030  0.00436588  0.71601582     0.12000
H777        H  0.17089224  0.00049921  0.80695123     0.14800
H778        H  0.15552662  0.94389562  0.81850783     0.13500
H779        H  0.15165133  0.93641766  0.68718062     0.11200
H780        H  0.16322679  0.99396106  0.67588780     0.13200
C781        C  0.03146663  0.94098199  0.23341145     0.19300
C782        C  0.01115809  0.95904167  0.23671990    -0.18800
C783        C  0.01397819  0.98025557  0.25356632    -0.11000
C784        C  0.03737582  0.98407031  0.26766672     0.21600
C785        C  0.05766070  0.96582687  0.26456600    -0.20400
C786        C  0.05482315  0.94451983  0.24760959    -0.11200
C787        C  0.04037436  0.00540625  0.28731647    -0.15400
C788        C  0.02462089  0.02643285  0.28861114    -0.29200
C789        C  0.02704705  0.91892950  0.21504244    -0.03500
C790        C  0.04611188  0.90489472  0.20350492    -0.40000
H791        H  0.99285472  0.95672359  0.22617725     0.12700
H792        H  0.99741669  0.99309190  0.25588673     0.12400
H793        H  0.07572732  0.96794441  0.27550243     0.11800
H794        H  0.07072054  0.93074942  0.24604807     0.12000
H795        H  0.05529954  0.00293942  0.30221940     0.14800
H796        H  0.00986169  0.02979846  0.27383539     0.13500
H797        H  0.00689253  0.91564664  0.20886306     0.11200
H798        H  0.06661478  0.90862232  0.20775774     0.13200
C799        C  0.00821903  0.68646370  0.14206689     0.19300
C800        C  0.98896327  0.70351189  0.15152131    -0.18800
C801        C  0.99404421  0.73022705  0.15393382    -0.11000
C802        C  0.01858521  0.74060209  0.14663093     0.21600
C803        C  0.03798965  0.72345902  0.13764295    -0.20400
C804        C  0.03291259  0.69677338  0.13523749    -0.11200
C805        C  0.02482362  0.76901078  0.14753545    -0.15400
C806        C  0.00668213  0.78797641  0.14854946    -0.29200
C807        C  0.00131097  0.65845856  0.13833795    -0.03500
C808        C  0.01911437  0.63927971  0.13654390    -0.40000
H809        H  0.96981212  0.69611719  0.15700896     0.12700
H810        H  0.97868801  0.74250516  0.16157390     0.12400
H811        H  0.05705546  0.73084099  0.13185054     0.11800
H812        H  0.04816561  0.68454306  0.12729681     0.12000
H813        H  0.04527963  0.77462679  0.14527619     0.14800
H814        H  0.98597163  0.78323471  0.14947545     0.13500
H815        H  0.98060598  0.65340168  0.13724797     0.11200
H816        H  0.03986573  0.64350104  0.13875343     0.13200
C817        C  0.10695844  0.91991334  0.98945075     0.19300
C818        C  0.08042029  0.91594087  0.99540890    -0.18800
C819        C  0.07303056  0.90329139  0.01828548    -0.11000
C820        C  0.09209378  0.89412894  0.03579133     0.21600
C821        C  0.11871463  0.89804237  0.02986683    -0.20400
C822        C  0.12614722  0.91071805  0.00682414    -0.11200
C823        C  0.08438119  0.88314405  0.06146489    -0.15400
C824        C  0.06155817  0.87040959  0.06497868    -0.29200
C825        C  0.11344057  0.93631464  0.96660380    -0.03500
C826        C  0.13652443  0.93607338  0.95394065    -0.40000
H827        H  0.06526848  0.92334793  0.98263909     0.12700
H828        H  0.05233039  0.90176653  0.02271439     0.12400
H829        H  0.13373596  0.89176404  0.04335693     0.11800
H830        H  0.14677878  0.91427276  0.00328527     0.12000
H831        H  0.09688364  0.88727370  0.07813990     0.14800
H832        H  0.04937947  0.86554881  0.04828739     0.13500
H833        H  0.09824590  0.94954051  0.95997541     0.11200
H834        H  0.15168242  0.92221667  0.95901882     0.13200
C835        C  0.01573939  0.21845621  0.01667429     0.19300
C836        C  0.98878560  0.22212248  0.02094539    -0.18800
C837        C  0.97136861  0.20101069  0.02024031    -0.11000
C838        C  0.98067786  0.17569413  0.01580139     0.21600
C839        C  0.00771883  0.17191869  0.01227851    -0.20400
C840        C  0.02509639  0.19308278  0.01257512    -0.11200
C841        C  0.96280855  0.15278506  0.01580474    -0.15400
C842        C  0.93828550  0.15347401  0.00606554    -0.29200
C843        C  0.03338250  0.24152833  0.01652696    -0.03500
C844        C  0.05540193  0.24299176  0.00205912    -0.40000
H845        H  0.98112799  0.24144939  0.02444541     0.12700
H846        H  0.95070949  0.20445306  0.02364452     0.12400
H847        H  0.01537784  0.15254504  0.00910278     0.11800
H848        H  0.04582916  0.18947325  0.00992187     0.12000
H849        H  0.97071810  0.13430985  0.02235106     0.14800
H850        H  0.93096655  0.17114033  0.99714182     0.13500
H851        H  0.02667999  0.25883299  0.02674072     0.11200
H852        H  0.06138445  0.22672217  0.98996130     0.13200
C853        C  0.03894192  0.04176882  0.89902105     0.19300
C854        C  0.01427017  0.02999118  0.89560107    -0.18800
C855        C  0.99215314  0.03979248  0.90832970    -0.11000
C856        C  0.99442520  0.06160047  0.92475377     0.21600
C857        C  0.01882861  0.07401134  0.92725895    -0.20400
C858        C  0.04084803  0.06432925  0.91450554    -0.11200
C859        C  0.97300199  0.07005709  0.94219738    -0.15400
C860        C  0.94741011  0.06463682  0.93868903    -0.29200
C861        C  0.06254586  0.02762774  0.89000310    -0.03500
C862        C  0.08675745  0.03805968  0.88981627    -0.40000
H863        H  0.01235435  0.01238250  0.88410787     0.12700
H864        H  0.97377899  0.02934385  0.90644785     0.12400
H865        H  0.02112095  0.09065170  0.94007470     0.11800
H866        H  0.05945490  0.07370543  0.91836609     0.12000
H867        H  0.97885820  0.08099097  0.95943446     0.14800
H868        H  0.94036153  0.05528547  0.92104487     0.13500
H869        H  0.06027018  0.00692108  0.88619313     0.11200
H870        H  0.08983210  0.05878636  0.89234100     0.13200
C871        C  0.93952325  0.95086702  0.10472818     0.19300
C872        C  0.92123851  0.94806392  0.08455327    -0.18800
C873        C  0.90924191  0.96990020  0.07371452    -0.11000
C874        C  0.91560479  0.99508210  0.08270700     0.21600
C875        C  0.93240117  0.99766174  0.10423807    -0.20400
C876        C  0.94432149  0.97577803  0.11514889    -0.11200
C877        C  0.90698770  0.01899907  0.06887713    -0.15400
C878        C  0.90121689  0.01895745  0.04330311    -0.29200
C879        C  0.95412528  0.92766468  0.11360251    -0.03500
C880        C  0.97955732  0.92909063  0.12009176    -0.40000
H881        H  0.91697877  0.92900913  0.07648094     0.12700
H882        H  0.89549664  0.96691462  0.05793620     0.12400
H883        H  0.93728362  0.01674943  0.11185403     0.11800
H884        H  0.95771762  0.97843640  0.13131896     0.12000
H885        H  0.90848068  0.03750075  0.07908836     0.14800
H886        H  0.90092016  0.00090224  0.03236455     0.13500
H887        H  0.94469958  0.90871245  0.11200562     0.11200
H888        H  0.98967939  0.94773839  0.11993134     0.13200
C889        C  0.48339388  0.73657703  0.83762253     0.19300
C890        C  0.50639831  0.72578541  0.84797062    -0.18800
C891        C  0.51046197  0.69888143  0.84766990    -0.11000
C892        C  0.49153290  0.68199220  0.83682465     0.21600
C893        C  0.46875908  0.69280170  0.82604746    -0.20400
C894        C  0.46472416  0.71972593  0.82627815    -0.11200
C895        C  0.49391839  0.65309256  0.83787734    -0.15400
C896        C  0.51667169  0.64056424  0.84187525    -0.29200
C897        C  0.47980078  0.76531931  0.83945970    -0.03500
C898        C  0.45699415  0.77769276  0.83510345    -0.40000
H899        H  0.52114198  0.73822066  0.85683883     0.12700
H900        H  0.52805980  0.69151317  0.85672780     0.12400
H901        H  0.45388035  0.68029805  0.81751902     0.11800
H902        H  0.44696497  0.72701593  0.81750840     0.12000
H903        H  0.47610762  0.64164284  0.83540982     0.14800
H904        H  0.53498295  0.65129693  0.84310342     0.13500
H905        H  0.49654757  0.77678303  0.84596884     0.11200
H906        H  0.43955985  0.76709729  0.82923661     0.13200
C907        C  0.22911116  0.03965463  0.97931804     0.19300
C908        C  0.22227116  0.03684236  0.00563519    -0.18800
C909        C  0.24165305  0.03470181  0.02471047    -0.11000
C910        C  0.26832661  0.03549871  0.01773817     0.21600
C911        C  0.27506993  0.04054863  0.99168543    -0.20400
C912        C  0.25567215  0.04257596  0.97258801    -0.11200
C913        C  0.28964587  0.02983513  0.03656822    -0.15400
C914        C  0.28619214  0.01552893  0.05828968    -0.29200
C915        C  0.20820542  0.03698257  0.95951293    -0.03500
C916        C  0.21241986  0.02585258  0.93615709    -0.40000
H917        H  0.20186998  0.03498498  0.01132272     0.12700
H918        H  0.23561625  0.03192166  0.04471344     0.12400
H919        H  0.29547525  0.04180787  0.98588257     0.11800
H920        H  0.26155000  0.04571733  0.95257000     0.12000
H921        H  0.30948506  0.03515614  0.03083271     0.14800
H922        H  0.26688544  0.00863013  0.06389816     0.13500
H923        H  0.18813584  0.04014294  0.96593234     0.11200
H924        H  0.23211774  0.02114592  0.92974431     0.13200
C925        C  0.38662392  0.87768292  0.95339749     0.19300
C926        C  0.39321673  0.87170259  0.97924648    -0.18800
C927        C  0.38326743  0.88639119  0.99997458    -0.11000
C928        C  0.36660130  0.90766025  0.99523525     0.21600
C929        C  0.35927847  0.91301172  0.96942148    -0.20400
C930        C  0.36909853  0.89823536  0.94873773    -0.11200
C931        C  0.35834162  0.92620279  0.01600504    -0.15400
C932        C  0.36203153  0.92253564  0.04172972    -0.29200
C933        C  0.40119214  0.86471792  0.93191034    -0.03500
C934        C  0.39338720  0.86487313  0.90684786    -0.40000
H935        H  0.40690670  0.85618683  0.98337056     0.12700
H936        H  0.38978580  0.88160382  0.01939659     0.12400
H937        H  0.34665290  0.92934807  0.96511734     0.11800
H938        H  0.36402965  0.90404004  0.92913903     0.12000
H939        H  0.34968946  0.94441853  0.00963151     0.14800
H940        H  0.37002740  0.90454356  0.04917324     0.13500
H941        H  0.42030322  0.85670793  0.93666869     0.11200
H942        H  0.37413939  0.87202620  0.90154291     0.13200
C943        C  0.51660318  0.18408028  0.94108950     0.19300
C944        C  0.49000502  0.18166503  0.93420350    -0.18800
C945        C  0.47326578  0.20317918  0.93511204    -0.11000
C946        C  0.48279133  0.22763270  0.94312062     0.21600
C947        C  0.50950381  0.23026573  0.94914934    -0.20400
C948        C  0.52623369  0.20883463  0.94819658    -0.11200
C949        C  0.46570362  0.25085052  0.94571507    -0.15400
C950        C  0.43969596  0.24968609  0.95026335    -0.29200
C951        C  0.53311644  0.16018373  0.94146897    -0.03500
C952        C  0.55725772  0.15905087  0.95205498    -0.40000
H953        H  0.48202193  0.16295228  0.92843682     0.12700
H954        H  0.45297016  0.20054398  0.92953487     0.12400
H955        H  0.51740962  0.24895425  0.95511705     0.11800
H956        H  0.54657163  0.21204737  0.95314710     0.12000
H957        H  0.47536858  0.26975356  0.94600105     0.14800
H958        H  0.42960090  0.23110595  0.95145376     0.13500
H959        H  0.52409652  0.14217093  0.93474144     0.11200
H960        H  0.56660444  0.17616528  0.96020310     0.13200
C961        C  0.77072648  0.09531008  0.98041211     0.19300
C962        C  0.75521627  0.08204477  0.96198091    -0.18800
C963        C  0.72776930  0.08328294  0.96287549    -0.11000
C964        C  0.71502451  0.09805498  0.98220463     0.21600
C965        C  0.73046705  0.11155976  0.00045447    -0.20400
C966        C  0.75791980  0.11036237  0.99954528    -0.11200
C967        C  0.68584829  0.09863947  0.98485528    -0.15400
C968        C  0.66921207  0.09337970  0.96512052    -0.29200
C969        C  0.79996641  0.09264695  0.97895221    -0.03500
C970        C  0.81662100  0.09987107  0.99810317    -0.40000
H971        H  0.76436794  0.07024349  0.94705018     0.12700
H972        H  0.71671259  0.07200342  0.94882040     0.12400
H973        H  0.72123454  0.12309389  0.01554760     0.11800
H974        H  0.76879777  0.12141500  0.01387527     0.12000
H975        H  0.67776128  0.10384155  0.00375774     0.14800
H976        H  0.67670985  0.08968814  0.94568862     0.13500
H977        H  0.80806681  0.08320959  0.96178614     0.11200
H978        H  0.80929085  0.10846529  0.01594086     0.13200
C979        C  0.49007548  0.08164490  0.04969266     0.19300
C980        C  0.46512516  0.09246870  0.04587395    -0.18800
C981        C  0.44322426  0.08239026  0.05884552    -0.11000
C982        C  0.44578036  0.06095652  0.07550904     0.21600
C983        C  0.47102376  0.05140285  0.08091294    -0.20400
C984        C  0.49298024  0.06163885  0.06811772    -0.11200
C985        C  0.42167245  0.04780855  0.08515559    -0.15400
C986        C  0.42051212  0.02191773  0.08887972    -0.29200
C987        C  0.51142758  0.08877739  0.03133962    -0.03500
C988        C  0.53713585  0.08450320  0.03554672    -0.40000
H989        H  0.46236373  0.10794797  0.03184289     0.12700
H990        H  0.42403991  0.09031190  0.05459789     0.12400
H991        H  0.47378678  0.03544065  0.09433750     0.11800
H992        H  0.51181967  0.05267525  0.07149799     0.12000
H993        H  0.40367358  0.05905161  0.08597413     0.14800
H994        H  0.43786614  0.01006424  0.08619206     0.13500
H995        H  0.50541724  0.09663745  0.01260841     0.11200
H996        H  0.54422464  0.07831793  0.05446579     0.13200
C997        C  0.55422060  0.98126382  0.91974200     0.19300
C998        C  0.55066521  0.97512594  0.89337229    -0.18800
C999        C  0.53780561  0.95226448  0.88598010    -0.11000
C1000       C  0.52821084  0.93485715  0.90489455     0.21600
C1001       C  0.53259751  0.94048976  0.93132162    -0.20400
C1002       C  0.54548907  0.96343788  0.93873781    -0.11200
C1003       C  0.51081460  0.91269035  0.89773672    -0.15400
C1004       C  0.51021834  0.90212618  0.87371872    -0.29200
C1005       C  0.56441944  0.00753429  0.92651473    -0.03500
C1006       C  0.57454536  0.01361172  0.94987505    -0.40000
H1007       H  0.55697372  0.98859330  0.87838635     0.12700
H1008       H  0.53418066  0.94919252  0.86544978     0.12400
H1009       H  0.52513917  0.92758942  0.94629336     0.11800
H1010       H  0.54722711  0.96766905  0.95931761     0.12000
H1011       H  0.49690270  0.90592138  0.91231704     0.14800
H1012       H  0.52468687  0.90756412  0.85920847     0.13500
H1013       H  0.56288400  0.02267625  0.91182389     0.11200
H1014       H  0.57736993  0.99872869  0.96455089     0.13200
C1015       C  0.48293369  0.68655583  0.56758831     0.19300
C1016       C  0.50930582  0.68303240  0.56049754    -0.18800
C1017       C  0.52690819  0.70403026  0.56049134    -0.11000
C1018       C  0.51843623  0.72910164  0.56755462     0.21600
C1019       C  0.49248164  0.73229726  0.57608488    -0.20400
C1020       C  0.47491266  0.71130569  0.57617290    -0.11200
C1021       C  0.53562832  0.75252433  0.56554456    -0.15400
C1022       C  0.55565837  0.75440394  0.54852110    -0.29200
C1023       C  0.46441371  0.66417213  0.56504329    -0.03500
C1024       C  0.43828603  0.66691022  0.56232290    -0.40000
H1025       H  0.51617718  0.66409073  0.55430064     0.12700
H1026       H  0.54700859  0.70054155  0.55475978     0.12400
H1027       H  0.48555153  0.75128253  0.58207412     0.11800
H1028       H  0.45510032  0.71469500  0.58282894     0.12000
H1029       H  0.52982756  0.76978006  0.57635447     0.14800
H1030       H  0.56079670  0.73801155  0.53623591     0.13500
H1031       H  0.47282496  0.64489230  0.56282320     0.11200
H1032       H  0.42941130  0.68603279  0.56269555     0.13200
C1033       C  0.76928099  0.81845230  0.50750652     0.19300
C1034       C  0.75642732  0.81615929  0.53162760    -0.18800
C1035       C  0.72899392  0.81547156  0.53316626    -0.11000
C1036       C  0.71356285  0.81722700  0.51046284     0.21600
C1037       C  0.72641843  0.81960021  0.48635855    -0.20400
C1038       C  0.75382195  0.82018015  0.48480705    -0.11200
C1039       C  0.68422015  0.81729747  0.51071414    -0.15400
C1040       C  0.66913158  0.81606055  0.53228636    -0.29200
C1041       C  0.79863183  0.81890516  0.50717905    -0.03500
C1042       C  0.81338503  0.82219760  0.48563477    -0.40000
H1043       H  0.76768890  0.81488040  0.54948145     0.12700
H1044       H  0.72025427  0.81366515  0.55223661     0.12400
H1045       H  0.71517308  0.82108529  0.46850950     0.11800
H1046       H  0.76246440  0.82191817  0.46569399     0.12000
H1047       H  0.67445658  0.81930151  0.49199375     0.14800
H1048       H  0.67775726  0.81434020  0.55146993     0.13500
H1049       H  0.80863727  0.81667953  0.52574526     0.11200
H1050       H  0.80445734  0.82460026  0.46667405     0.13200
C1051       C  0.43945883  0.98639905  0.72906558     0.19300
C1052       C  0.44931934  0.96145074  0.72431513    -0.18800
C1053       C  0.44377229  0.94098284  0.74126471    -0.11000
C1054       C  0.42870573  0.94524268  0.76388419     0.21600
C1055       C  0.41875576  0.97032378  0.76852626    -0.20400
C1056       C  0.42388971  0.99071560  0.75120074    -0.11200
C1057       C  0.42530535  0.92510588  0.78445374    -0.15400
C1058       C  0.43371219  0.90037431  0.78244304    -0.29200
C1059       C  0.44668613  0.00744966  0.71086770    -0.03500
C1060       C  0.43075580  0.02724343  0.70468087    -0.40000
H1061       H  0.46148925  0.95777655  0.70738820     0.12700
H1062       H  0.45223764  0.92229559  0.73681707     0.12400
H1063       H  0.40746505  0.97432069  0.78595616     0.11800
H1064       H  0.41645442  0.00992102  0.75559293     0.12000
H1065       H  0.41749645  0.93161945  0.80306299     0.14800
H1066       H  0.44124297  0.89269891  0.76427678     0.13500
H1067       H  0.46492904  0.00507694  0.70011751     0.11200
H1068       H  0.41142165  0.02889328  0.71340412     0.13200
C1069       C  0.48947455  0.24575025  0.65802013     0.19300
C1070       C  0.46768682  0.23325769  0.66921829    -0.18800
C1071       C  0.46511975  0.20606460  0.66822548    -0.11000
C1072       C  0.48428900  0.19074903  0.65563202     0.21600
C1073       C  0.50609334  0.20338064  0.64466139    -0.20400
C1074       C  0.50869302  0.23043430  0.64578325    -0.11200
C1075       C  0.48193301  0.16196104  0.65186571    -0.15400
C1076       C  0.46254641  0.14704590  0.66162070    -0.29200
C1077       C  0.49096309  0.27473691  0.65768756    -0.03500
C1078       C  0.51394069  0.28776059  0.65695244    -0.40000
H1079       H  0.45246011  0.24461164  0.67855720     0.12700
H1080       H  0.44780470  0.19747402  0.67679245     0.12400
H1081       H  0.52102652  0.19227738  0.63458318     0.11800
H1082       H  0.52534294  0.23931375  0.63616999     0.12000
H1083       H  0.49645103  0.15268372  0.63945451     0.14800
H1084       H  0.44760821  0.15529144  0.67410077     0.13500
H1085       H  0.47271865  0.28558888  0.65801014     0.11200
H1086       H  0.53226023  0.27717161  0.65817935     0.13200
C1087       C  0.50819976  0.96725405  0.59899517     0.19300
C1088       C  0.53515394  0.96867089  0.59320065    -0.18800
C1089       C  0.54940573  0.94597300  0.58800997    -0.11000
C1090       C  0.53694797  0.92148420  0.58854666     0.21600
C1091       C  0.51013188  0.92016001  0.59444329    -0.20400
C1092       C  0.49585959  0.94278641  0.59927951    -0.11200
C1093       C  0.55084509  0.89695930  0.58212768    -0.15400
C1094       C  0.56973979  0.89565835  0.56389421    -0.29200
C1095       C  0.49206955  0.99058103  0.60474107    -0.03500
C1096       C  0.50169727  0.01321955  0.61406254    -0.40000
H1097       H  0.54522632  0.98721431  0.59225378     0.12700
H1098       H  0.57012137  0.94761426  0.58370606     0.12400
H1099       H  0.50004457  0.90155891  0.59476049     0.11800
H1100       H  0.47509768  0.94113308  0.60350889     0.12000
H1101       H  0.54287024  0.87896824  0.59001383     0.14800
H1102       H  0.57663936  0.91325727  0.55440135     0.13500
H1103       H  0.47092164  0.98831893  0.60297758     0.11200
H1104       H  0.52257051  0.01584622  0.61725808     0.13200
C1105       C  0.22501952  0.91566624  0.51647821     0.19300
C1106       C  0.22099550  0.91754954  0.48952401    -0.18800
C1107       C  0.24229520  0.91876603  0.47242371    -0.11000
C1108       C  0.26819096  0.91796513  0.48201617     0.21600
C1109       C  0.27203148  0.91395284  0.50882234    -0.20400
C1110       C  0.25071449  0.91283638  0.52591672    -0.11200
C1111       C  0.29170631  0.92246945  0.46531502    -0.15400
C1112       C  0.29076745  0.93028457  0.44029328    -0.29200
C1113       C  0.20209987  0.91833383  0.53404560    -0.03500
C1114       C  0.20386523  0.92896944  0.55795490    -0.40000
H1115       H  0.20133047  0.91925133  0.48174667     0.12700
H1116       H  0.23811009  0.92090808  0.45191955     0.12400
H1117       H  0.29167563  0.91259932  0.51673681     0.11800
H1118       H  0.25447483  0.91027869  0.54650434     0.12000
H1119       H  0.31082209  0.92063170  0.47452370     0.14800
H1120       H  0.27227338  0.93270721  0.43025959     0.13500
H1121       H  0.18279809  0.91452020  0.52585451     0.11200
H1122       H  0.22275591  0.93453182  0.56599063     0.13200
C1123       C  0.34639922  0.96095917  0.27412575     0.19300
C1124       C  0.34134444  0.94113440  0.25595093    -0.18800
C1125       C  0.34009134  0.94657533  0.22924772    -0.11000
C1126       C  0.34413121  0.97213221  0.22006171     0.21600
C1127       C  0.34933748  0.99188919  0.23834720    -0.20400
C1128       C  0.35053284  0.98643969  0.26501770    -0.11200
C1129       C  0.34433644  0.97909325  0.19178835    -0.15400
C1130       C  0.33804372  0.96278423  0.17213345    -0.29200
C1131       C  0.34863709  0.95413065  0.30218141    -0.03500
C1132       C  0.34447840  0.97117017  0.32168007    -0.40000
H1133       H  0.33840385  0.92127706  0.26245038     0.12700
H1134       H  0.33641828  0.93054974  0.21610501     0.12400
H1135       H  0.35284506  0.01168301  0.23193951     0.11800
H1136       H  0.35535025  0.00211274  0.27829969     0.12000
H1137       H  0.35056891  0.99873674  0.18683926     0.14800
H1138       H  0.33159436  0.94305059  0.17594553     0.13500
H1139       H  0.35360403  0.93414719  0.30695553     0.11200
H1140       H  0.33815225  0.99086767  0.31753847     0.13200
C1141       C  0.40449941  0.06665761  0.52506924     0.19300
C1142       C  0.42033833  0.06358569  0.50289401    -0.18800
C1143       C  0.41020889  0.05230654  0.48017370    -0.11000
C1144       C  0.38394159  0.04376674  0.47933319     0.21600
C1145       C  0.36758881  0.04906580  0.50064328    -0.20400
C1146       C  0.37765330  0.06041441  0.52325508    -0.11200
C1147       C  0.37313034  0.02751315  0.45787629    -0.15400
C1148       C  0.38795931  0.01397898  0.44098980    -0.29200
C1149       C  0.41707509  0.07460663  0.54999928    -0.03500
C1150       C  0.40612015  0.07036016  0.57348383    -0.40000
H1151       H  0.44094271  0.06883725  0.50351234     0.12700
H1152       H  0.42323176  0.04966870  0.46377385     0.12400
H1153       H  0.34712055  0.04328440  0.50029670     0.11800
H1154       H  0.36435177  0.06358302  0.53931669     0.12000
H1155       H  0.35206177  0.02409307  0.45790991     0.14800
H1156       H  0.40911329  0.01613144  0.44066311     0.13500
H1157       H  0.43726359  0.08148422  0.54916150     0.11200
H1158       H  0.38661268  0.06214177  0.57524782     0.13200
C1159       C  0.49608244  0.85307393  0.44970965     0.19300
C1160       C  0.46948296  0.84648006  0.45270790    -0.18800
C1161       C  0.44999049  0.85993844  0.43919837    -0.11000
C1162       C  0.45669579  0.88044462  0.42231801     0.21600
C1163       C  0.48335739  0.88628478  0.41843313    -0.20400
C1164       C  0.50287582  0.87282253  0.43197017    -0.11200
C1165       C  0.43671211  0.89834327  0.41129343    -0.15400
C1166       C  0.41086835  0.89298993  0.40976490    -0.29200
C1167       C  0.51541230  0.84099125  0.46767407    -0.03500
C1168       C  0.54170128  0.84279226  0.46536924    -0.40000
H1169       H  0.46365314  0.83150753  0.46638069     0.12700
H1170       H  0.42974325  0.85508178  0.44324749     0.12400
H1171       H  0.48907222  0.90209112  0.40567996     0.11800
H1172       H  0.52301958  0.87891714  0.42935555     0.12000
H1173       H  0.44351023  0.91759554  0.40560179     0.14800
H1174       H  0.40336511  0.87371872  0.41417546     0.13500
H1175       H  0.50738261  0.83127402  0.48471476     0.11200
H1176       H  0.55073362  0.85151799  0.44837242     0.13200
loop_ 
_geom_bond_atom_site_label_1 
_geom_bond_atom_site_label_2 
_geom_bond_distance 
_geom_bond_site_symmetry_2 
_ccdc_geom_bond_type 
In1           O3   2.249       .  S
In1           O4   2.252       .  S
In1          O12   2.257       .  S
In1           O6   2.256       .  S
In1           O8   2.253       .  S
In1           O9   2.262       .  S
In1          O10   2.247       .  S
In1          O13   2.236       .  S
C2            O8   1.258       .  A
C2           O10   1.260       .  A
C2         C1148   1.473   1_565  S
O3           C11   1.261       .  A
O4           C11   1.261       .  A
C5           O12   1.257       .  A
C5            O6   1.259       .  A
C5         C1132   1.475       .  S
C7            O9   1.261       .  A
C7           O13   1.260       .  A
C7         C1166   1.476       .  S
C11        C1112   1.474       .  S
In14         O16   2.221       .  S
In14         O17   2.257       .  S
In14         O25   2.243       .  S
In14         O19   2.267       .  S
In14         O21   2.260       .  S
In14         O22   2.236       .  S
In14         O23   2.229       .  S
In14         O26   2.239       .  S
C15          O21   1.266       .  A
C15          O23   1.261       .  A
C15        C1096   1.477       .  S
O16          C24   1.260       .  A
O17          C24   1.261       .  A
C18          O25   1.257       .  A
C18          O19   1.263       .  A
C18        C1076   1.479       .  S
C20          O22   1.260       .  A
C20          O26   1.261       .  A
C20        C1150   1.468       .  S
C24        C1060   1.470       .  S
In27         O29   2.245       .  S
In27         O30   2.251       .  S
In27         O38   2.258       .  S
In27         O32   2.253       .  S
In27         O34   2.270       .  S
In27         O35   2.253       .  S
In27         O36   2.230       .  S
In27         O39   2.253       .  S
C28          O34   1.261       .  A
C28          O36   1.257       .  A
C28        C1168   1.477       .  S
O29          C37   1.261       .  A
O30          C37   1.262       .  A
C31          O38   1.261       .  A
C31          O32   1.261       .  A
C31        C1040   1.480       .  S
C33          O35   1.261       .  A
C33          O39   1.259       .  A
C33        C1094   1.476       .  S
C37        C1022   1.476       .  S
In40         O42   2.231       .  S
In40         O43   2.247       .  S
In40         O51   2.243       .  S
In40         O45   2.254       .  S
In40         O47   2.266   1_556  S
In40         O48   2.246       .  S
In40         O49   2.216       .  S
In40         O52   2.225       .  S
C41          O47   1.266       .  A
C41          O49   1.259   1_554  A
C41         C988   1.475       .  S
O42          C50   1.260       .  A
O43          C50   1.264       .  A
C44          O51   1.262       .  A
C44          O45   1.266       .  A
C44         C968   1.480       .  S
C46          O48   1.266       .  A
C46          O52   1.260       .  A
C46        C1006   1.471       .  S
C50         C952   1.471       .  S
In53         O55   2.259       .  S
In53         O56   2.235   1_565  S
In53         O64   2.261       .  S
In53         O58   2.254       .  S
In53         O60   2.258       .  S
In53         O61   2.255   1_565  S
In53         O62   2.243       .  S
In53         O65   2.245       .  S
C54          O60   1.260       .  A
C54          O62   1.258       .  A
C54         C932   1.474       .  S
O55          C63   1.262   1_565  A
O56          C63   1.258       .  A
C57          O64   1.262       .  A
C57          O58   1.259       .  A
C57        C1130   1.480       .  S
C59          O61   1.260       .  A
C59          O65   1.258   1_545  A
C59         C986   1.472       .  S
C63         C914   1.473       .  S
In66         O68   2.250       .  S
In66         O69   2.247       .  S
In66         O77   2.248       .  S
In66         O71   2.253       .  S
In66         O73   2.259       .  S
In66         O74   2.248       .  S
In66         O75   2.253       .  S
In66         O78   2.235       .  S
C67          O73   1.258       .  A
C67          O75   1.256       .  A
C67        C1004   1.472       .  S
O68          C76   1.259       .  A
O69          C76   1.260       .  A
C70          O77   1.258       .  A
C70          O71   1.260       .  A
C70         C898   1.476       .  S
C72          O74   1.263       .  A
C72          O78   1.262       .  A
C72         C934   1.474       .  S
C76        C1058   1.472       .  S
In79         O81   2.255       .  S
In79         O82   2.242   1_556  S
In79         O90   2.241   1_556  S
In79         O84   2.268       .  S
In79         O86   2.266       .  S
In79         O87   2.263   1_556  S
In79         O88   2.209       .  S
In79         O91   2.233   1_556  S
C80          O86   1.265       .  A
C80          O88   1.259       .  A
C80         C860   1.472       .  S
O81          C89   1.263   1_556  A
O82          C89   1.263       .  A
C83          O90   1.261   1_556  A
C83          O84   1.264       .  A
C83         C970   1.482       .  S
C85          O87   1.262       .  A
C85          O91   1.258       .  A
C85         C878   1.472       .  S
C89         C842   1.477       .  S
In92         O94   2.226       .  S
In92         O95   2.257       .  S
In92        O103   2.263       .  S
In92         O97   2.253   1_455  S
In92         O99   2.252   1_455  S
In92        O100   2.257       .  S
In92        O101   2.222       .  S
In92        O104   2.233       .  S
C93          O99   1.266       .  A
C93         O101   1.258   1_655  A
C93         C880   1.468       .  S
O94         C102   1.261       .  A
O95         C102   1.264       .  A
C96         O103   1.263       .  A
C96          O97   1.260   1_455  A
C96         C806   1.480       .  S
C98         O100   1.264       .  A
C98         O104   1.259       .  A
C98         C824   1.473       .  S
C102        C790   1.478       .  S
In105       O107   2.247   1_565  S
In105       O108   2.226   1_565  S
In105       O116   2.241       .  S
In105       O110   2.243       .  S
In105       O112   2.263       .  S
In105       O113   2.244   1_565  S
In105       O114   2.226       .  S
In105       O117   2.225       .  S
C106        O112   1.261       .  A
C106        O114   1.259       .  A
C106        C826   1.475       .  S
O107        C115   1.260       .  A
O108        C115   1.258       .  A
C109        O116   1.261       .  A
C109        O110   1.259       .  A
C109        C770   1.472       .  S
C111        O113   1.260       .  A
C111        O117   1.260   1_545  A
C111        C862   1.467       .  S
C115        C916   1.468       .  S
In118       O120   2.241       .  S
In118       O121   2.271   1_455  S
In118       O129   2.264   1_455  S
In118       O123   2.243       .  S
In118       O125   2.258       .  S
In118       O126   2.264   1_455  S
In118       O127   2.231       .  S
In118       O130   2.230   1_455  S
C119        O125   1.258       .  A
C119        O127   1.257       .  A
C119        C736   1.469       .  S
O120        C128   1.261   1_455  A
O121        C128   1.264       .  A
C122        O129   1.263   1_455  A
C122        O123   1.258       .  A
C122        C808   1.478       .  S
C124        O126   1.264       .  A
C124        O130   1.257       .  A
C124        C754   1.472       .  S
C128        C716   1.479       .  S
In131       O133   2.256       .  S
In131       O134   2.235   1_556  S
In131       O142   2.270   1_556  S
In131       O136   2.251       .  S
In131       O138   2.276       .  S
In131       O139   2.246   1_556  S
In131       O140   2.238       .  S
In131       O143   2.235   1_556  S
C132        O138   1.262       .  A
C132        O140   1.256       .  A
C132        C698   1.478       .  S
O133        C141   1.263       .  A
O134        C141   1.260   1_554  A
C135        O142   1.262   1_556  A
C135        O136   1.261       .  A
C135        C680   1.484       .  S
C137        O139   1.258       .  A
C137        O143   1.259       .  A
C137        C734   1.468       .  S
C141        C844   1.474   1_556  S
In144       O146   2.271       .  S
In144       O147   2.224       .  S
In144       O155   2.267       .  S
In144       O149   2.250       .  S
In144       O151   2.267       .  S
In144       O152   2.262       .  S
In144       O153   2.242       .  S
In144       O156   2.247       .  S
C145        O151   1.260       .  A
C145        O153   1.259       .  A
C145        C752   1.477       .  S
O146        C154   1.262       .  A
O147        C154   1.258       .  A
C148        O155   1.262       .  A
C148        O149   1.259       .  A
C148        C662   1.480       .  S
C150        O152   1.260       .  A
C150        O156   1.261       .  A
C150        C700   1.479       .  S
C154        C644   1.476       .  S
In157       O159   2.235       .  S
In157       O160   2.263       .  S
In157       O168   2.268       .  S
In157       O162   2.255       .  S
In157       O164   2.251       .  S
In157       O165   2.251       .  S
In157       O166   2.270   1_556  S
In157       O169   2.245       .  S
C158        O164   1.256   1_554  A
C158        O166   1.259       .  A
C158        C608   1.475       .  S
O159        C167   1.260       .  A
O160        C167   1.263       .  A
C161        O168   1.261       .  A
C161        O162   1.259       .  A
C161        C682   1.481       .  S
C163        O165   1.260       .  A
C163        O169   1.260       .  A
C163        C626   1.474       .  S
C167        C950   1.477       .  S
In170       O172   2.262       .  S
In170       O173   2.231       .  S
In170       O181   2.263       .  S
In170       O175   2.242       .  S
In170       O177   2.251       .  S
In170       O178   2.260       .  S
In170       O179   2.243       .  S
In170       O182   2.247       .  S
C171        O177   1.259       .  A
C171        O179   1.261       .  A
C171        C590   1.472       .  S
O172        C180   1.261       .  A
O173        C180   1.259       .  A
C174        O181   1.262       .  A
C174        O175   1.259       .  A
C174        C574   1.475       .  S
C176        O178   1.261       .  A
C176        O182   1.258       .  A
C176        C610   1.475       .  S
C180        C646   1.474       .  S
In183       O185   2.236       .  S
In183       O186   2.250       .  S
In183       O194   2.235       .  S
In183       O188   2.258       .  S
In183       O190   2.269       .  S
In183       O191   2.250       .  S
In183       O192   2.240       .  S
In183       O195   2.224       .  S
C184        O190   1.264       .  A
C184        O192   1.259       .  A
C184        C628   1.480       .  S
O185        C193   1.260       .  A
O186        C193   1.262       .  A
C187        O194   1.261       .  A
C187        O188   1.266       .  A
C187        C896   1.477       .  S
C189        O191   1.265       .  A
C189        O195   1.260       .  A
C189        C592   1.469       .  S
C193        C554   1.472       .  S
In196       O198   2.259       .  S
In196       O199   2.262       .  S
In196       O207   2.241       .  S
In196       O201   2.263       .  S
In196       O203   2.277       .  S
In196       O204   2.256       .  S
In196       O205   2.229       .  S
In196       O208   2.235       .  S
C197        O203   1.260       .  A
C197        O205   1.255       .  A
C197        C518   1.476       .  S
O198        C206   1.258       .  A
O199        C206   1.260       .  A
C200        O207   1.262       .  A
C200        O201   1.264       .  A
C200       C1078   1.478       .  S
C202        O204   1.265       .  A
C202        O208   1.260       .  A
C202        C536   1.475       .  S
C206        C556   1.480       .  S
In209       O211   2.242       .  S
In209       O212   2.252       .  S
In209       O220   2.247       .  S
In209       O214   2.256       .  S
In209       O216   2.273       .  S
In209       O217   2.270       .  S
In209       O218   2.245       .  S
In209       O221   2.224       .  S
C210        O216   1.259       .  A
C210        O218   1.257       .  A
C210        C500   1.477       .  S
O211        C219   1.260       .  A
O212        C219   1.262       .  A
C213        O220   1.260       .  A
C213        O214   1.263       .  A
C213        C484   1.479       .  S
C215        O217   1.265       .  A
C215        O221   1.258       .  A
C215        C520   1.473       .  S
C219       C1024   1.475       .  S
In222       O224   2.233       .  S
In222       O225   2.262       .  S
In222       O233   2.263       .  S
In222       O227   2.240       .  S
In222       O229   2.261       .  S
In222       O230   2.261       .  S
In222       O231   2.227       .  S
In222       O234   2.238       .  S
C223        O229   1.260       .  A
C223        O231   1.260       .  A
C223        C538   1.472       .  S
O224        C232   1.259       .  A
O225        C232   1.263       .  A
C226        O233   1.262       .  A
C226        O227   1.258       .  A
C226        C572   1.475       .  S
C228        O230   1.263       .  A
C228        O234   1.258       .  A
C228        C502   1.475       .  S
C232        C464   1.477       .  S
In235       O237   2.249       .  S
In235       O238   2.250       .  S
In235       O246   2.251       .  S
In235       O240   2.269       .  S
In235       O242   2.266       .  S
In235       O243   2.255       .  S
In235       O244   2.230       .  S
In235       O247   2.253       .  S
C236        O242   1.263       .  A
C236        O244   1.259       .  A
C236        C430   1.476   1_655  S
O237        C245   1.263       .  A
O238        C245   1.261       .  A
C239        O246   1.257       .  A
C239        O240   1.261       .  A
C239        C412   1.479       .  S
C241        O243   1.260       .  A
C241        O247   1.260       .  A
C241        C446   1.477       .  S
C245        C718   1.478       .  S
In248       O250   2.269       .  S
In248       O251   2.236       .  S
In248       O259   2.250       .  S
In248       O253   2.279       .  S
In248       O255   2.278       .  S
In248       O256   2.252       .  S
In248       O257   2.245       .  S
In248       O260   2.252       .  S
C249        O255   1.261       .  A
C249        O257   1.256       .  A
C249        C392   1.480       .  S
O250        C258   1.263       .  A
O251        C258   1.260       .  A
C252        O259   1.258       .  A
C252        O253   1.263       .  A
C252        C482   1.481       .  S
C254        O256   1.260       .  A
C254        O260   1.261       .  A
C254        C428   1.477       .  S
C258        C374   1.480       .  S
In261       O263   2.253       .  S
In261       O264   2.259       .  S
In261       O272   2.273       .  S
In261       O266   2.257       .  S
In261       O268   2.260       .  S
In261       O269   2.264       .  S
In261       O270   2.252       .  S
In261       O273   2.251       .  S
C262        O268   1.262       .  A
C262        O270   1.259       .  A
C262        C448   1.477       .  S
O263        C271   1.260       .  A
O264        C271   1.262       .  A
C265        O272   1.261       .  A
C265        O266   1.260       .  A
C265        C664   1.484       .  S
C267        O269   1.261       .  A
C267        O273   1.258       .  A
C267        C394   1.479       .  S
C271        C466   1.479       .  S
In274       O276   2.246       .  S
In274       O277   2.238       .  S
In274       O285   2.253       .  S
In274       O279   2.249       .  S
In274       O281   2.258       .  S
In274       O282   2.256       .  S
In274       O283   2.248       .  S
In274       O286   2.249       .  S
C275        O281   1.261       .  A
C275        O283   1.259       .  A
C275        C340   1.476   1_565  S
O276        C284   1.260       .  A
O277        C284   1.262       .  A
C278        O285   1.260       .  A
C278        O279   1.259       .  A
C278        C772   1.475       .  S
C280        O282   1.259       .  A
C280        O286   1.259       .  A
C280        C356   1.476       .  S
C284       C1114   1.471       .  S
In287       O289   2.251       .  S
In287       O290   2.255       .  S
In287       O298   2.240       .  S
In287       O292   2.270   1_455  S
In287       O294   2.273   1_455  S
In287       O295   2.244       .  S
In287       O296   2.223       .  S
In287       O299   2.243       .  S
C288        O294   1.263       .  A
C288        O296   1.258   1_655  A
C288        C320   1.477       .  S
O289        C297   1.262       .  A
O290        C297   1.261       .  A
C291        O298   1.259       .  A
C291        O292   1.263   1_455  A
C291        C410   1.479       .  S
C293        O295   1.260       .  A
C293        O299   1.260       .  A
C293        C338   1.471       .  S
C297        C788   1.478       .  S
In300       O302   2.255       .  S
In300       O303   2.235       .  S
In300       O311   2.246       .  S
In300       O305   2.264       .  S
In300       O307   2.265       .  S
In300       O308   2.244       .  S
In300       O309   2.237       .  S
In300       O312   2.232       .  S
C301        O307   1.261       .  A
C301        O309   1.258       .  A
C301        C358   1.476       .  S
O302        C310   1.264       .  A
O303        C310   1.260       .  A
C304        O311   1.257       .  A
C304        O305   1.261       .  A
C304       C1042   1.477       .  S
C306        O308   1.260       .  A
C306        O312   1.260       .  A
C306        C322   1.469       .  S
C310        C376   1.474       .  S
C313        C321   1.485       .  S
C313        C314   1.405       .  A
C313        C318   1.406       .  A
C314        C315   1.400       .  A
C314        H323   1.084       .  S
C315        C316   1.407       .  A
C315        H324   1.080       .  S
C316        C319   1.485       .  S
C316        C317   1.404       .  A
C317        C318   1.393       .  A
C317        H325   1.084       .  S
C318        H326   1.080       .  S
C319        H327   1.088       .  S
C319        C320   1.347   1_565  D
C320        H328   1.083       .  S
C321        H329   1.087       .  S
C321        C322   1.345       .  D
C322        H330   1.084       .  S
C331        C339   1.489       .  S
C331        C332   1.403       .  A
C331        C336   1.409       .  A
C332        C333   1.396       .  A
C332        H341   1.084       .  S
C333        C334   1.407       .  A
C333        H342   1.080       .  S
C334        C337   1.487       .  S
C334        C335   1.404       .  A
C335        C336   1.401       .  A
C335        H343   1.084       .  S
C336        H344   1.080       .  S
C337        H345   1.087       .  S
C337        C338   1.346       .  D
C338        H346   1.084       .  S
C339        H347   1.088       .  S
C339        C340   1.347       .  D
C340        H348   1.083       .  S
C349        C357   1.489       .  S
C349        C350   1.405   1_655  A
C349        C354   1.407       .  A
C350        C351   1.399       .  A
C350        H359   1.083       .  S
C351        C352   1.408       .  A
C351        H360   1.080       .  S
C352        C355   1.490       .  S
C352        C353   1.405       .  A
C353        C354   1.398   1_455  A
C353        H361   1.083       .  S
C354        H362   1.080       .  S
C355        H363   1.087       .  S
C355        C356   1.347       .  D
C356        H364   1.083       .  S
C357        H365   1.087       .  S
C357        C358   1.348       .  D
C358        H366   1.083       .  S
C367        C375   1.486       .  S
C367        C368   1.404       .  A
C367        C372   1.406       .  A
C368        C369   1.397       .  A
C368        H377   1.082       .  S
C369        C370   1.404   1_655  A
C369        H378   1.083       .  S
C370        C373   1.487       .  S
C370        C371   1.407       .  A
C371        C372   1.403   1_455  A
C371        H379   1.082       .  S
C372        H380   1.083   1_655  S
C373        H381   1.087       .  S
C373        C374   1.348       .  D
C374        H382   1.085       .  S
C375        H383   1.087       .  S
C375        C376   1.349       .  D
C376        H384   1.085       .  S
C385        C393   1.495       .  S
C385        C386   1.406       .  A
C385        C390   1.408       .  A
C386        C387   1.401   1_655  A
C386        H395   1.083       .  S
C387        C388   1.407   1_455  A
C387        H396   1.081       .  S
C388        C391   1.490   1_655  S
C388        C389   1.405       .  A
C389        C390   1.400       .  A
C389        H397   1.083       .  S
C390        H398   1.080       .  S
C391        H399   1.087       .  S
C391        C392   1.349       .  D
C392        H400   1.084       .  S
C393        H401   1.087       .  S
C393        C394   1.350       .  D
C394        H402   1.082       .  S
C403        C411   1.496       .  S
C403        C404   1.404   1_655  A
C403        C408   1.411       .  A
C404        C405   1.400       .  A
C404        H413   1.084       .  S
C405        C406   1.409   1_455  A
C405        H414   1.080       .  S
C406        C409   1.497       .  S
C406        C407   1.405       .  A
C407        C408   1.402       .  A
C407        H415   1.084       .  S
C408        H416   1.079       .  S
C409        H417   1.087       .  S
C409        C410   1.348   1_655  D
C410        H418   1.083       .  S
C411        H419   1.087   1_655  S
C411        C412   1.347       .  D
C412        H420   1.082       .  S
C421        C429   1.488       .  S
C421        C422   1.405       .  A
C421        C426   1.407       .  A
C422        C423   1.399       .  A
C422        H431   1.084       .  S
C423        C424   1.409       .  A
C423        H432   1.079       .  S
C424        C427   1.492       .  S
C424        C425   1.404       .  A
C425        C426   1.399       .  A
C425        H433   1.084       .  S
C426        H434   1.080       .  S
C427        H435   1.088       .  S
C427        C428   1.347       .  D
C428        H436   1.083       .  S
C429        H437   1.088   1_455  S
C429        C430   1.348       .  D
C430        H438   1.083       .  S
C439        C447   1.488       .  S
C439        C440   1.404       .  A
C439        C444   1.406       .  A
C440        C441   1.401       .  A
C440        H449   1.083       .  S
C441        C442   1.408       .  A
C441        H450   1.081       .  S
C442        C445   1.491       .  S
C442        C443   1.405       .  A
C443        C444   1.399       .  A
C443        H451   1.083       .  S
C444        H452   1.082       .  S
C445        H453   1.087       .  S
C445        C446   1.348       .  D
C446        H454   1.083       .  S
C447        H455   1.087       .  S
C447        C448   1.347       .  D
C448        H456   1.085       .  S
C457        C465   1.495       .  S
C457        C458   1.407       .  A
C457        C462   1.409       .  A
C458        C459   1.401       .  A
C458        H467   1.083       .  S
C459        C460   1.405       .  A
C459        H468   1.082       .  S
C460        C463   1.487       .  S
C460        C461   1.404       .  A
C461        C462   1.398       .  A
C461        H469   1.084       .  S
C462        H470   1.080       .  S
C463        H471   1.088       .  S
C463        C464   1.348       .  D
C464        H472   1.085       .  S
C465        H473   1.087       .  S
C465        C466   1.349       .  D
C466        H474   1.082       .  S
C475        C483   1.495       .  S
C475        C476   1.405       .  A
C475        C480   1.409       .  A
C476        C477   1.401       .  A
C476        H485   1.083       .  S
C477        C478   1.410       .  A
C477        H486   1.081       .  S
C478        C481   1.497       .  S
C478        C479   1.405       .  A
C479        C480   1.401       .  A
C479        H487   1.083       .  S
C480        H488   1.081       .  S
C481        H489   1.087       .  S
C481        C482   1.348       .  D
C482        H490   1.083       .  S
C483        H491   1.087       .  S
C483        C484   1.348       .  D
C484        H492   1.083       .  S
C493        C501   1.492       .  S
C493        C494   1.404       .  A
C493        C498   1.410       .  A
C494        C495   1.400       .  A
C494        H503   1.084       .  S
C495        C496   1.408       .  A
C495        H504   1.081       .  S
C496        C499   1.487       .  S
C496        C497   1.403       .  A
C497        C498   1.398       .  A
C497        H505   1.084       .  S
C498        H506   1.080       .  S
C499        H507   1.088       .  S
C499        C500   1.346       .  D
C500        H508   1.085       .  S
C501        H509   1.087       .  S
C501        C502   1.345       .  D
C502        H510   1.084       .  S
C511        C519   1.487       .  S
C511        C512   1.404       .  A
C511        C516   1.407       .  A
C512        C513   1.403       .  A
C512        H521   1.083       .  S
C513        C514   1.407       .  A
C513        H522   1.082       .  S
C514        C517   1.482       .  S
C514        C515   1.401       .  A
C515        C516   1.394       .  A
C515        H523   1.084       .  S
C516        H524   1.082       .  S
C517        H525   1.088       .  S
C517        C518   1.345       .  D
C518        H526   1.085       .  S
C519        H527   1.087       .  S
C519        C520   1.343       .  D
C520        H528   1.086       .  S
C529        C537   1.482       .  S
C529        C530   1.401       .  A
C529        C534   1.407       .  A
C530        C531   1.395       .  A
C530        H539   1.084       .  S
C531        C532   1.409       .  A
C531        H540   1.080       .  S
C532        C535   1.491       .  S
C532        C533   1.405       .  A
C533        C534   1.400       .  A
C533        H541   1.083       .  S
C534        H542   1.082       .  S
C535        H543   1.087       .  S
C535        C536   1.346       .  D
C536        H544   1.083       .  S
C537        H545   1.088       .  S
C537        C538   1.343       .  D
C538        H546   1.085       .  S
C547        C555   1.492       .  S
C547        C548   1.405       .  A
C547        C552   1.409       .  A
C548        C549   1.398       .  A
C548        H557   1.084       .  S
C549        C550   1.406       .  A
C549        H558   1.082       .  S
C550        C553   1.488       .  S
C550        C551   1.405       .  A
C551        C552   1.402       .  A
C551        H559   1.084       .  S
C552        H560   1.081       .  S
C553        H561   1.088       .  S
C553        C554   1.346       .  D
C554        H562   1.085       .  S
C555        H563   1.087       .  S
C555        C556   1.347       .  D
C556        H564   1.084       .  S
C565        C573   1.494       .  S
C565        C566   1.404       .  A
C565        C570   1.410       .  A
C566        C567   1.399       .  A
C566        H575   1.084       .  S
C567        C568   1.410       .  A
C567        H576   1.078       .  S
C568        C571   1.494       .  S
C568        C569   1.404       .  A
C569        C570   1.398       .  A
C569        H577   1.083       .  S
C570        H578   1.079       .  S
C571        H579   1.087       .  S
C571        C572   1.346       .  D
C572        H580   1.081       .  S
C573        H581   1.087       .  S
C573        C574   1.346       .  D
C574        H582   1.081       .  S
C583        C591   1.488       .  S
C583        C584   1.403       .  A
C583        C588   1.410       .  A
C584        C585   1.399       .  A
C584        H593   1.083       .  S
C585        C586   1.408   1_556  A
C585        H594   1.081   1_556  S
C586        C589   1.483       .  S
C586        C587   1.401       .  A
C587        C588   1.396   1_554  A
C587        H595   1.083       .  S
C588        H596   1.080       .  S
C589        H597   1.088       .  S
C589        C590   1.342       .  D
C590        H598   1.085       .  S
C591        H599   1.087       .  S
C591        C592   1.343       .  D
C592        H600   1.083       .  S
C601        C609   1.490       .  S
C601        C602   1.403       .  A
C601        C606   1.409       .  A
C602        C603   1.398       .  A
C602        H611   1.083       .  S
C603        C604   1.404       .  A
C603        H612   1.084       .  S
C604        C607   1.492       .  S
C604        C605   1.409       .  A
C605        C606   1.398       .  A
C605        H613   1.079       .  S
C606        H614   1.080       .  S
C607        H615   1.088       .  S
C607        C608   1.347       .  D
C608        H616   1.082       .  S
C609        H617   1.087       .  S
C609        C610   1.345       .  D
C610        H618   1.083       .  S
C619        C627   1.487       .  S
C619        C620   1.403       .  A
C619        C624   1.407       .  A
C620        C621   1.398       .  A
C620        H629   1.084       .  S
C621        C622   1.407       .  A
C621        H630   1.082       .  S
C622        C625   1.487       .  S
C622        C623   1.404       .  A
C623        C624   1.401       .  A
C623        H631   1.084       .  S
C624        H632   1.082       .  S
C625        H633   1.087       .  S
C625        C626   1.346       .  D
C626        H634   1.085       .  S
C627        H635   1.087       .  S
C627        C628   1.348       .  D
C628        H636   1.085       .  S
C637        C645   1.488       .  S
C637        C638   1.406   1_554  A
C637        C642   1.407       .  A
C638        C639   1.399       .  A
C638        H647   1.084       .  S
C639        C640   1.406       .  A
C639        H648   1.080       .  S
C640        C643   1.485       .  S
C640        C641   1.403   1_556  A
C641        C642   1.395       .  A
C641        H649   1.084       .  S
C642        H650   1.079       .  S
C643        H651   1.088       .  S
C643        C644   1.348       .  D
C644        H652   1.084       .  S
C645        H653   1.088       .  S
C645        C646   1.348       .  D
C646        H654   1.083       .  S
C655        C663   1.498       .  S
C655        C656   1.405       .  A
C655        C660   1.409       .  A
C656        C657   1.401       .  A
C656        H665   1.083       .  S
C657        C658   1.409       .  A
C657        H666   1.081       .  S
C658        C661   1.497       .  S
C658        C659   1.406       .  A
C659        C660   1.403       .  A
C659        H667   1.083       .  S
C660        H668   1.081       .  S
C661        H669   1.087       .  S
C661        C662   1.349       .  D
C662        H670   1.083       .  S
C663        H671   1.087       .  S
C663        C664   1.350       .  D
C664        H672   1.083       .  S
C673        C681   1.498       .  S
C673        C674   1.405       .  A
C673        C678   1.409       .  A
C674        C675   1.402       .  A
C674        H683   1.083       .  S
C675        C676   1.410       .  A
C675        H684   1.080       .  S
C676        C679   1.501       .  S
C676        C677   1.406   1_556  A
C677        C678   1.402   1_554  A
C677        H685   1.083       .  S
C678        H686   1.080   1_556  S
C679        H687   1.087   1_556  S
C679        C680   1.350       .  D
C680        H688   1.082       .  S
C681        H689   1.087       .  S
C681        C682   1.349       .  D
C682        H690   1.082   1_556  S
C691        C699   1.492       .  S
C691        C692   1.405       .  A
C691        C696   1.408       .  A
C692        C693   1.399       .  A
C692        H701   1.083       .  S
C693        C694   1.407       .  A
C693        H702   1.080   1_655  S
C694        C697   1.492   1_655  S
C694        C695   1.407       .  A
C695        C696   1.401       .  A
C695        H703   1.083       .  S
C696        H704   1.081       .  S
C697        H705   1.087       .  S
C697        C698   1.351       .  D
C698        H706   1.082       .  S
C699        H707   1.087       .  S
C699        C700   1.348       .  D
C700        H708   1.083       .  S
C709        C717   1.492       .  S
C709        C710   1.403       .  A
C709        C714   1.409       .  A
C710        C711   1.398       .  A
C710        H719   1.084   1_655  S
C711        C712   1.409       .  A
C711        H720   1.080   1_655  S
C712        C715   1.495       .  S
C712        C713   1.405       .  A
C713        C714   1.403       .  A
C713        H721   1.084       .  S
C714        H722   1.080       .  S
C715        H723   1.087       .  S
C715        C716   1.348       .  D
C716        H724   1.083       .  S
C717        H725   1.087       .  S
C717        C718   1.348       .  D
C718        H726   1.083       .  S
C727        C735   1.483       .  S
C727        C728   1.403       .  A
C727        C732   1.407       .  A
C728        C729   1.394       .  A
C728        H737   1.084       .  S
C729        C730   1.407       .  A
C729        H738   1.079       .  S
C730        C733   1.484       .  S
C730        C731   1.403       .  A
C731        C732   1.396       .  A
C731        H739   1.084       .  S
C732        H740   1.079       .  S
C733        H741   1.088       .  S
C733        C734   1.344       .  D
C734        H742   1.082       .  S
C735        H743   1.088       .  S
C735        C736   1.344       .  D
C736        H744   1.083       .  S
C745        C753   1.489       .  S
C745        C746   1.405       .  A
C745        C750   1.409       .  A
C746        C747   1.402       .  A
C746        H755   1.083       .  S
C747        C748   1.408   1_554  A
C747        H756   1.082       .  S
C748        C751   1.485       .  S
C748        C749   1.401       .  A
C749        C750   1.396   1_556  A
C749        H757   1.083       .  S
C750        H758   1.081       .  S
C751        H759   1.087       .  S
C751        C752   1.345       .  D
C752        H760   1.085       .  S
C753        H761   1.087       .  S
C753        C754   1.344       .  D
C754        H762   1.085       .  S
C763        C771   1.494       .  S
C763        C764   1.405       .  A
C763        C768   1.409       .  A
C764        C765   1.399       .  A
C764        H773   1.084       .  S
C765        C766   1.408       .  A
C765        H774   1.079       .  S
C766        C769   1.489       .  S
C766        C767   1.403       .  A
C767        C768   1.397       .  A
C767        H775   1.083   1_565  S
C768        H776   1.079   1_565  S
C769        H777   1.087   1_565  S
C769        C770   1.345       .  D
C770        H778   1.082       .  S
C771        H779   1.087       .  S
C771        C772   1.348       .  D
C772        H780   1.082       .  S
C781        C789   1.489       .  S
C781        C782   1.403       .  A
C781        C786   1.407       .  A
C782        C783   1.397       .  A
C782        H791   1.085   1_455  S
C783        C784   1.408       .  A
C783        H792   1.080   1_455  S
C784        C787   1.495   1_565  S
C784        C785   1.408       .  A
C785        C786   1.404       .  A
C785        H793   1.084       .  S
C786        H794   1.081       .  S
C787        H795   1.087       .  S
C787        C788   1.351       .  D
C788        H796   1.083       .  S
C789        H797   1.088       .  S
C789        C790   1.349       .  D
C790        H798   1.084       .  S
C799        C807   1.492       .  S
C799        C800   1.404   1_455  A
C799        C804   1.408       .  A
C800        C801   1.401       .  A
C800        H809   1.084       .  S
C801        C802   1.409   1_655  A
C801        H810   1.081       .  S
C802        C805   1.493       .  S
C802        C803   1.405       .  A
C803        C804   1.400       .  A
C803        H811   1.084       .  S
C804        H812   1.081       .  S
C805        H813   1.087       .  S
C805        C806   1.347       .  D
C806        H814   1.084   1_455  S
C807        H815   1.087   1_455  S
C807        C808   1.346       .  D
C808        H816   1.085       .  S
C817        C825   1.482       .  S
C817        C818   1.401       .  A
C817        C822   1.408   1_556  A
C818        C819   1.394   1_556  A
C818        H827   1.084       .  S
C819        C820   1.407       .  A
C819        H828   1.082       .  S
C820        C823   1.487       .  S
C820        C821   1.405       .  A
C821        C822   1.402       .  A
C821        H829   1.083       .  S
C822        H830   1.082       .  S
C823        H831   1.087       .  S
C823        C824   1.345       .  D
C824        H832   1.086       .  S
C825        H833   1.088       .  S
C825        C826   1.344       .  D
C826        H834   1.085       .  S
C835        C843   1.485       .  S
C835        C836   1.405   1_455  A
C835        C840   1.406       .  A
C836        C837   1.399       .  A
C836        H845   1.083       .  S
C837        C838   1.405       .  A
C837        H846   1.083       .  S
C838        C841   1.486       .  S
C838        C839   1.405   1_655  A
C839        C840   1.400       .  A
C839        H847   1.083       .  S
C840        H848   1.082       .  S
C841        H849   1.087       .  S
C841        C842   1.347       .  D
C842        H850   1.085   1_554  S
C843        H851   1.088       .  S
C843        C844   1.348       .  D
C844        H852   1.085   1_554  S
C853        C861   1.482       .  S
C853        C854   1.404       .  A
C853        C858   1.407       .  A
C854        C855   1.398   1_455  A
C854        H863   1.083       .  S
C855        C856   1.405       .  A
C855        H864   1.082       .  S
C856        C859   1.478       .  S
C856        C857   1.401   1_655  A
C857        C858   1.393       .  A
C857        H865   1.084       .  S
C858        H866   1.080       .  S
C859        H867   1.088       .  S
C859        C860   1.345       .  D
C860        H868   1.085       .  S
C861        H869   1.087       .  S
C861        C862   1.344       .  D
C862        H870   1.083       .  S
C871        C879   1.481       .  S
C871        C872   1.400       .  A
C871        C876   1.407       .  A
C872        C873   1.397       .  A
C872        H881   1.084       .  S
C873        C874   1.409       .  A
C873        H882   1.081       .  S
C874        C877   1.488   1_565  S
C874        C875   1.404       .  A
C875        C876   1.399       .  A
C875        H883   1.083   1_565  S
C876        H884   1.083       .  S
C877        H885   1.087       .  S
C877        C878   1.345       .  D
C878        H886   1.083       .  S
C879        H887   1.087       .  S
C879        C880   1.340       .  D
C880        H888   1.086       .  S
C889        C897   1.492       .  S
C889        C890   1.404       .  A
C889        C894   1.409       .  A
C890        C891   1.399       .  A
C890        H899   1.084       .  S
C891        C892   1.409       .  A
C891        H900   1.081       .  S
C892        C895   1.492       .  S
C892        C893   1.403       .  A
C893        C894   1.400       .  A
C893        H901   1.084       .  S
C894        H902   1.080       .  S
C895        H903   1.087       .  S
C895        C896   1.345       .  D
C896        H904   1.084       .  S
C897        H905   1.087       .  S
C897        C898   1.347       .  D
C898        H906   1.083       .  S
C907        C915   1.479       .  S
C907        C908   1.402   1_556  A
C907        C912   1.405       .  A
C908        C909   1.396       .  A
C908        H917   1.084       .  S
C909        C910   1.407       .  A
C909        H918   1.081       .  S
C910        C913   1.485       .  S
C910        C911   1.405   1_554  A
C911        C912   1.397       .  A
C911        H919   1.084       .  S
C912        H920   1.082       .  S
C913        H921   1.087       .  S
C913        C914   1.348       .  D
C914        H922   1.084       .  S
C915        H923   1.088       .  S
C915        C916   1.344       .  D
C916        H924   1.085       .  S
C925        C933   1.487       .  S
C925        C926   1.403       .  A
C925        C930   1.407       .  A
C926        C927   1.399       .  A
C926        H935   1.083       .  S
C927        C928   1.409       .  A
C927        H936   1.080   1_556  S
C928        C931   1.490   1_556  S
C928        C929   1.404       .  A
C929        C930   1.398       .  A
C929        H937   1.083       .  S
C930        H938   1.081       .  S
C931        H939   1.087       .  S
C931        C932   1.347       .  D
C932        H940   1.082       .  S
C933        H941   1.087       .  S
C933        C934   1.346       .  D
C934        H942   1.084       .  S
C943        C951   1.492       .  S
C943        C944   1.406       .  A
C943        C948   1.409       .  A
C944        C945   1.400       .  A
C944        H953   1.083       .  S
C945        C946   1.406       .  A
C945        H954   1.082       .  S
C946        C949   1.486       .  S
C946        C947   1.403       .  A
C947        C948   1.397       .  A
C947        H955   1.084       .  S
C948        H956   1.080       .  S
C949        H957   1.087       .  S
C949        C950   1.347       .  D
C950        H958   1.085       .  S
C951        H959   1.087       .  S
C951        C952   1.347       .  D
C952        H960   1.082       .  S
C961        C969   1.499       .  S
C961        C962   1.406       .  A
C961        C966   1.410       .  A
C962        C963   1.402       .  A
C962        H971   1.083       .  S
C963        C964   1.408       .  A
C963        H972   1.081       .  S
C964        C967   1.494       .  S
C964        C965   1.404   1_556  A
C965        C966   1.402   1_554  A
C965        H973   1.083       .  S
C966        H974   1.080   1_556  S
C967        H975   1.087   1_556  S
C967        C968   1.347       .  D
C968        H976   1.084       .  S
C969        H977   1.087       .  S
C969        C970   1.349       .  D
C970        H978   1.083   1_556  S
C979        C987   1.485       .  S
C979        C980   1.404       .  A
C979        C984   1.406       .  A
C980        C981   1.398       .  A
C980        H989   1.084       .  S
C981        C982   1.402       .  A
C981        H990   1.083       .  S
C982        C985   1.485       .  S
C982        C983   1.407       .  A
C983        C984   1.399       .  A
C983        H991   1.082       .  S
C984        H992   1.081       .  S
C985        H993   1.087       .  S
C985        C986   1.346       .  D
C986        H994   1.085       .  S
C987        H995   1.088       .  S
C987        C988   1.347       .  D
C988        H996   1.085       .  S
C997       C1005   1.485   1_565  S
C997        C998   1.400       .  A
C997       C1002   1.410       .  A
C998        C999   1.395       .  A
C998       H1007   1.083       .  S
C999       C1000   1.408       .  A
C999       H1008   1.081       .  S
C1000      C1003   1.486       .  S
C1000      C1001   1.404       .  A
C1001      C1002   1.400       .  A
C1001      H1009   1.084       .  S
C1002      H1010   1.081       .  S
C1003      H1011   1.087       .  S
C1003      C1004   1.346       .  D
C1004      H1012   1.084       .  S
C1005      H1013   1.088       .  S
C1005      C1006   1.341       .  D
C1006      H1014   1.085   1_545  S
C1015      C1023   1.491       .  S
C1015      C1016   1.405       .  A
C1015      C1020   1.407       .  A
C1016      C1017   1.401       .  A
C1016      H1025   1.083       .  S
C1017      C1018   1.407       .  A
C1017      H1026   1.082       .  S
C1018      C1021   1.490       .  S
C1018      C1019   1.404       .  A
C1019      C1020   1.399       .  A
C1019      H1027   1.083       .  S
C1020      H1028   1.081       .  S
C1021      H1029   1.087       .  S
C1021      C1022   1.347       .  D
C1022      H1030   1.084       .  S
C1023      H1031   1.087       .  S
C1023      C1024   1.347       .  D
C1024      H1032   1.084       .  S
C1033      C1041   1.497       .  S
C1033      C1034   1.405       .  A
C1033      C1038   1.410       .  A
C1034      C1035   1.401       .  A
C1034      H1043   1.084       .  S
C1035      C1036   1.409       .  A
C1035      H1044   1.079       .  S
C1036      C1039   1.496       .  S
C1036      C1037   1.405       .  A
C1037      C1038   1.400       .  A
C1037      H1045   1.084       .  S
C1038      H1046   1.079       .  S
C1039      H1047   1.087       .  S
C1039      C1040   1.349       .  D
C1040      H1048   1.082       .  S
C1041      H1049   1.087       .  S
C1041      C1042   1.348       .  D
C1042      H1050   1.082       .  S
C1051      C1059   1.476   1_565  S
C1051      C1052   1.400       .  A
C1051      C1056   1.403       .  A
C1052      C1053   1.394       .  A
C1052      H1061   1.084       .  S
C1053      C1054   1.409       .  A
C1053      H1062   1.078       .  S
C1054      C1057   1.489       .  S
C1054      C1055   1.407       .  A
C1055      C1056   1.399       .  A
C1055      H1063   1.083       .  S
C1056      H1064   1.082   1_565  S
C1057      H1065   1.087       .  S
C1057      C1058   1.347       .  D
C1058      H1066   1.082       .  S
C1059      H1067   1.088       .  S
C1059      C1060   1.343       .  D
C1060      H1068   1.086       .  S
C1069      C1077   1.491       .  S
C1069      C1070   1.404       .  A
C1069      C1074   1.406       .  A
C1070      C1071   1.404       .  A
C1070      H1079   1.084       .  S
C1071      C1072   1.413       .  A
C1071      H1080   1.079       .  S
C1072      C1075   1.496       .  S
C1072      C1073   1.403       .  A
C1073      C1074   1.397       .  A
C1073      H1081   1.084       .  S
C1074      H1082   1.081       .  S
C1075      H1083   1.087       .  S
C1075      C1076   1.345       .  D
C1076      H1084   1.082       .  S
C1077      H1085   1.087       .  S
C1077      C1078   1.347       .  D
C1078      H1086   1.085       .  S
C1087      C1095   1.486       .  S
C1087      C1088   1.408       .  A
C1087      C1092   1.404       .  A
C1088      C1089   1.402       .  A
C1088      H1097   1.082       .  S
C1089      C1090   1.408       .  A
C1089      H1098   1.082       .  S
C1090      C1093   1.485       .  S
C1090      C1091   1.402       .  A
C1091      C1092   1.396       .  A
C1091      H1099   1.084       .  S
C1092      H1100   1.084       .  S
C1093      H1101   1.087       .  S
C1093      C1094   1.345       .  D
C1094      H1102   1.085       .  S
C1095      H1103   1.088       .  S
C1095      C1096   1.348   1_565  D
C1096      H1104   1.085       .  S
C1105      C1113   1.482       .  S
C1105      C1106   1.402       .  A
C1105      C1110   1.405       .  A
C1106      C1107   1.397       .  A
C1106      H1115   1.083       .  S
C1107      C1108   1.410       .  A
C1107      H1116   1.080       .  S
C1108      C1111   1.491       .  S
C1108      C1109   1.405       .  A
C1109      C1110   1.398       .  A
C1109      H1117   1.083       .  S
C1110      H1118   1.082       .  S
C1111      H1119   1.088       .  S
C1111      C1112   1.347       .  D
C1112      H1120   1.082       .  S
C1113      H1121   1.087       .  S
C1113      C1114   1.345       .  D
C1114      H1122   1.085       .  S
C1123      C1131   1.487       .  S
C1123      C1124   1.403       .  A
C1123      C1128   1.406       .  A
C1124      C1125   1.401       .  A
C1124      H1133   1.084       .  S
C1125      C1126   1.411       .  A
C1125      H1134   1.079       .  S
C1126      C1129   1.495       .  S
C1126      C1127   1.405       .  A
C1127      C1128   1.399       .  A
C1127      H1135   1.084   1_565  S
C1128      H1136   1.081   1_565  S
C1129      H1137   1.088       .  S
C1129      C1130   1.348       .  D
C1130      H1138   1.083       .  S
C1131      H1139   1.087       .  S
C1131      C1132   1.346       .  D
C1132      H1140   1.085       .  S
C1141      C1149   1.487       .  S
C1141      C1142   1.404       .  A
C1141      C1146   1.408       .  A
C1142      C1143   1.399       .  A
C1142      H1151   1.084       .  S
C1143      C1144   1.408       .  A
C1143      H1152   1.080       .  S
C1144      C1147   1.485       .  S
C1144      C1145   1.402       .  A
C1145      C1146   1.394       .  A
C1145      H1153   1.084       .  S
C1146      H1154   1.080       .  S
C1147      H1155   1.088       .  S
C1147      C1148   1.345       .  D
C1148      H1156   1.084       .  S
C1149      H1157   1.088       .  S
C1149      C1150   1.346       .  D
C1150      H1158   1.083       .  S
C1159      C1167   1.488       .  S
C1159      C1160   1.405       .  A
C1159      C1164   1.407       .  A
C1160      C1161   1.398       .  A
C1160      H1169   1.083       .  S
C1161      C1162   1.406       .  A
C1161      H1170   1.081       .  S
C1162      C1165   1.488       .  S
C1162      C1163   1.405       .  A
C1163      C1164   1.400       .  A
C1163      H1171   1.083       .  S
C1164      H1172   1.081       .  S
C1165      H1173   1.087       .  S
C1165      C1166   1.347       .  D
C1166      H1174   1.084       .  S
C1167      H1175   1.087       .  S
C1167      C1168   1.348       .  D
C1168      H1176   1.083       .  S
